24
TSA8_9_CH2F_CF3_OMe
C          1.81040        0.11200       -0.09360
C          1.43420        1.34420       -0.50970
C          1.91930       -0.29950        1.34930
H          2.03200       -0.66180       -0.82190
C          1.27190        1.65670       -1.98120
C          4.17370        3.94100        0.02240
C          2.84600        3.98740        0.17620
C          2.10960        3.04290        1.08670
O          1.15200        2.32990        0.38500
O          4.78080        4.82750       -0.80250
H          4.75910        3.19930        0.56070
H          2.27220        4.73440       -0.36520
H          1.59520        3.65640        1.85460
H          2.80870        2.35780        1.61110
F          3.21870       -0.68250        1.62150
H          1.24340       -1.16160        1.52550
H          1.61980        0.49940        2.05490
F         -0.02950        2.05940       -2.21470
F          2.12710        2.68090       -2.33810
F          1.54340        0.56170       -2.78420
C          6.14330        4.86580       -1.01190
H          6.35060        4.71730       -2.09170
H          6.67960        4.08160       -0.43360
H          6.53050        5.85980       -0.70660
