20
TSA8_9_CH2F_Me_Br
C          2.73870       -0.69920        0.90490
C          1.37410       -0.47560        1.52820
C          2.60080       -0.65290       -0.63080
H          3.37420        0.15950        1.21710
C          1.14810        0.69770        2.43530
C          3.46140       -1.98020        1.43100
C          2.88220       -3.30410        0.97780
C          1.73900       -3.80930        1.44900
O          0.43720       -1.21350        1.26640
Br         5.34350       -1.94110        0.91980
H          3.48940       -1.96100        2.54250
H          3.44150       -3.90390        0.26520
H          1.15450       -3.29420        2.20030
H          1.39090       -4.77490        1.09650
F          3.83170       -0.69930       -1.25800
H          2.10600        0.29580       -0.93130
H          1.97900       -1.49880       -0.99360
H          1.81920        0.62150        3.31620
H          0.09510        0.72630        2.78870
H          1.36670        1.63910        1.88890
