20
TSA8_9_CH2F_Me_Br
C          1.77250       -0.01190        0.18010
C          1.43790       -0.33440        1.46330
C          2.13690       -0.88850       -0.98680
H          1.77210        1.04310       -0.08260
C          1.08700        0.78570        2.40620
C          4.09970       -3.56540        2.36550
C          3.35050       -2.80000        1.56410
C          1.84420       -2.81520        1.63150
O          1.37270       -1.57970        2.02660
Br         6.00710       -3.49460        2.26290
H          3.64390       -4.23200        3.09110
H          3.84480       -2.14090        0.85940
H          1.51280       -3.55100        2.39570
H          1.36870       -3.14900        0.69220
F          3.39470       -0.53910       -1.43740
H          1.40570       -0.69960       -1.80180
H          2.13180       -1.96490       -0.80600
H          1.78740        0.76580        3.26840
H          0.05320        0.63990        2.78090
H          1.14910        1.79020        1.93530
