21
TSA8_9_OH_CCl3_CHF2
C          2.16260       -0.97040       -1.88270
C          0.96330       -1.86780       -1.64420
O          1.92220        0.26190       -1.24990
H          3.07860       -1.44430       -1.45220
C          1.08340       -3.14650       -0.83700
C          2.41860       -0.71190       -3.38960
C          3.59220        0.23170       -3.54300
C          3.46570        1.43530       -4.10970
O         -0.12390       -1.52570       -2.08420
C          2.69970       -2.00330       -4.17790
H          1.50300       -0.24570       -3.82020
H          4.56830       -0.07580       -3.17790
H          2.50850        1.78350       -4.48470
H          4.33000        2.08530       -4.19880
H          2.34780        0.22290       -0.35360
Cl         2.23950       -4.27270       -1.58870
Cl         1.64690       -2.76250        0.80950
Cl        -0.48740       -3.98840       -0.69730
F          2.87810       -1.70780       -5.51830
F          3.83740       -2.63330       -3.70260
H          1.83940       -2.69990       -4.09510
