21
TSA8_9_OH_CCl3_CHF2
C          1.73570       -0.09020       -0.03490
C          1.48290       -1.09180       -0.91540
O          2.00210        1.16850       -0.43740
H          1.70460       -0.26680        1.03300
C          1.11900       -2.49560       -0.45640
C          2.31960       -1.49180       -5.01110
C          2.98540       -0.77970       -4.09000
C          2.26040       -0.02210       -3.01740
O          1.50870       -0.91170       -2.26930
C          3.04300       -2.25620       -6.07830
H          1.23330       -1.52460       -4.99030
H          4.07160       -0.74680       -4.11210
H          1.58790        0.72670       -3.48700
H          3.02650        0.49680       -2.40890
H          2.16660        1.86930        0.20830
Cl         2.30740       -3.64030       -1.12910
Cl         1.07170       -2.74940        1.31580
Cl        -0.48850       -2.91350       -1.09990
F          3.79850       -1.39210       -6.85000
F          3.87000       -3.20310       -5.50180
H          2.30650       -2.77100       -6.73000
