21
TSA8_9_OH_CCl3_CHF2
C          2.77260       -1.32720       -2.08880
C          1.35390       -0.99080       -1.50460
O          3.65980       -0.28240       -1.78350
H          3.17510       -2.27380       -1.66170
C          0.68970       -2.15860       -0.74950
C          2.65820       -1.47300       -3.62010
C          2.08410       -0.17800       -4.23380
C          1.10190        0.50040       -3.26570
O          0.44920       -0.47360       -2.48270
C          3.96900       -1.88770       -4.30630
H          1.91860       -2.27940       -3.81260
H          2.85730        0.57480       -4.50150
H          0.36390        1.09680       -3.84030
H          1.63310        1.22560       -2.60480
H          3.82630       -0.32910       -0.80600
Cl         0.39060       -3.55640       -1.81730
Cl         1.70410       -2.67970        0.62330
Cl        -0.87250       -1.62170       -0.07860
F          4.95260       -0.93140       -4.12180
F          4.41090       -3.09570       -3.79700
H          3.79380       -2.01130       -5.39610
