23
TSA8_9_CBr3_CH2F_CF3
C          1.64890       -0.46890        1.87730
C          3.04550       -0.17900        2.45530
C          1.62310       -1.35140        0.56530
H          1.30780        0.51830        1.49130
C          4.31580       -0.92480        2.13150
C          0.67240       -0.80630        3.08260
C         -0.77580       -0.94490        2.66890
C         -1.71150       -0.05840        3.02180
O          3.14220        0.72970        3.26810
C          1.03890       -2.01720        3.97890
H          0.74450        0.07960        3.75620
H         -1.07860       -1.80580        2.08390
H         -1.46660        0.81560        3.61680
H         -2.74070       -0.20780        2.71080
Br        -0.08280       -1.26540       -0.36680
Br         2.83560       -0.60220       -0.76600
Br         2.06120       -3.23560        0.75720
F          5.24650       -0.04670        1.60750
H          4.18180       -1.75030        1.41910
H          4.72490       -1.36360        3.06570
F          0.87720       -3.21680        3.32100
F          2.33740       -1.92690        4.44450
F          0.20080       -2.03070        5.08130
