23
TSA8_9_CBr3_CH2F_CF3
C          1.47390       -0.29490        0.20040
C          2.12830       -0.56710        1.36390
C          1.98710       -0.47000       -1.21890
H          0.46570        0.09220        0.27310
C          3.54410       -1.08340        1.43130
C          0.55130       -1.04620        5.23400
C         -0.01460       -1.34200        4.05420
C          0.17140       -0.44580        2.86560
O          1.52330       -0.37950        2.57080
C          0.39010       -1.93870        6.42780
H          1.14560       -0.14130        5.33420
H         -0.61440       -2.24210        3.94750
H         -0.20800        0.56910        3.10920
H         -0.41660       -0.86330        2.02340
Br         0.58970        0.03890       -2.46520
Br         3.50280        0.66720       -1.62810
Br         2.41960       -2.32220       -1.60060
F          4.44450       -0.15290        0.95710
H          3.64970       -2.04020        0.88550
H          3.81170       -1.28270        2.49120
F          0.91500       -3.18810        6.15290
F          1.06100       -1.39530        7.50740
F         -0.95060       -2.06430        6.74650
