23
TSA8_9_CBr3_CH2F_CF3
C          1.40440       -1.47420        1.66780
C          2.12590       -0.14900        1.80660
C          1.68510       -1.29080        0.01430
H          0.35820       -1.67150        1.38450
C          3.65120       -0.60710        2.05690
C          1.11730       -1.59690        3.40100
C         -0.09290       -0.68850        3.48120
C          0.05740        0.57660        2.72420
O          1.48920        0.85980        2.58450
C          0.82370       -2.22160        4.84460
H          2.01870       -1.13030        3.82790
H         -1.01090       -1.28730        3.18050
H         -0.48840        1.32330        3.30580
H         -0.45830        0.46670        1.74150
Br         0.12560       -0.57840       -0.94070
Br         3.00330       -0.00310       -0.86170
Br         2.19380       -2.92530       -0.87220
F          4.58940        0.31760        1.64490
H          3.86070       -1.50890        1.41710
H          3.91730       -1.01870        3.05030
F          1.41900       -3.44440        5.09740
F          1.33770       -1.35350        5.85220
F         -0.53390       -2.36290        5.26840
