18
TSA8_9_OH_CH2F_H
C          1.74460        0.16550       -0.19770
C          1.47710        0.89350       -1.30550
O          2.01330        0.73640        0.99390
H          1.72280       -0.92030       -0.24870
C          1.12720        0.19040       -2.58760
C          2.64030        5.44180       -1.36210
C          2.87760        4.12990       -1.45050
C          2.20210        3.13500       -0.55310
O          1.47630        2.25800       -1.33770
H          3.14740        6.13010       -2.03050
H          1.94540        5.84030       -0.62920
H          3.58000        3.76850       -2.19640
H          1.51240        3.64270        0.15520
H          3.00130        2.62260        0.01840
H          2.18870        0.19220        1.77380
F         -0.13330        0.57980       -2.99960
H          1.14110       -0.91560       -2.48050
H          1.86450        0.47310       -3.36770
