18
TSA8_9_H_OH_CF3
C          2.11610       -0.19550        0.05560
C          1.47640       -1.34760        0.29060
H          2.52320        0.05950       -0.91660
H          2.22090        0.53750        0.84850
O          0.97190       -1.56900        1.52150
C          3.21070       -4.50220       -0.61660
C          3.35410       -3.31570       -1.23470
C          2.14330       -2.57610       -1.73120
O          1.29570       -2.30090       -0.67090
C          4.36090       -5.31270       -0.08790
H          2.21320       -4.91390       -0.48610
H          4.33580       -2.87920       -1.38740
H          1.61120       -3.23370       -2.45280
H          2.42590       -1.65420       -2.27880
H          0.53520       -2.40340        1.73820
F          5.57730       -4.68660       -0.30020
F          4.18730       -5.50650        1.26980
F          4.37300       -6.54200       -0.71880
