20
TSA8_9_H_Et_I
C          1.86480        1.42380       -1.40270
C          0.77670        0.75580       -2.20200
H          1.51210        1.49180       -0.35180
H          2.78810        0.80380       -1.41740
C          1.05020       -0.55570       -2.90050
C          2.19230        2.82910       -1.94250
C          3.23080        3.51530       -1.08910
C          3.00990        3.81030        0.19650
O         -0.32670        1.28040       -2.26570
I          2.92350        2.70820       -3.96270
H          1.27450        3.45680       -1.94990
H          4.18480        3.79480       -1.52600
H          2.06840        3.56390        0.67700
H          3.77770        4.31050        0.77770
C         -0.16470       -1.09760       -3.65360
H          1.36340       -1.30590       -2.14330
H          1.88190       -0.41220       -3.62280
H         -1.00550       -1.27740       -2.94980
H          0.09910       -2.05850       -4.14350
H         -0.48700       -0.37700       -4.43540
