15
TSA8_9_Cl_CN_H
C          1.76050       -1.58470       -0.83920
C          2.35050       -2.05350        0.46500
Cl         2.92440       -0.50610       -1.66390
H          0.86270       -0.95860       -0.63180
C          1.70440       -1.72000        1.71000
C          1.37420       -2.77750       -1.75230
C         -0.10400       -2.80490       -2.04000
C         -1.00500       -2.99710       -1.07210
O          3.40460       -2.67210        0.47920
H          1.90720       -2.69600       -2.72350
H          1.67170       -3.75360       -1.30730
H         -0.44460       -2.66680       -3.06230
H         -0.69350       -3.14670       -0.04270
H         -2.06360       -3.00790       -1.30990
N          1.18600       -1.45250        2.70880
