16
TSA8_9_H_OH_OH
C          3.18430        0.93610       -1.40260
C          1.70170        0.84800       -1.64520
H          3.42370        0.40030       -0.45850
H          3.68680        0.39310       -2.23310
O          1.24700        0.26880       -2.77700
C          3.79200        2.36370       -1.37820
C          3.30460        3.27080       -0.26410
C          2.07930        3.80270       -0.23110
O          0.90830        1.23420       -0.80130
O          5.19160        2.25190       -1.29240
H          3.57410        2.86420       -2.34670
H          3.99740        3.54700        0.52630
H          1.35570        3.61200       -1.01440
H          1.79970        4.46420        0.58270
H          0.29990        0.17380       -2.95110
H          5.40940        1.79280       -0.43830
