16
TSA8_9_NH2_H_Br
C          1.85380       -1.00940        1.70150
C          1.40640        0.32950        1.16200
N          1.61600       -2.07090        0.71830
H          2.95030       -0.94340        1.87980
H          2.13270        1.12460        1.02890
C          1.19470       -1.33240        3.06410
C         -0.30750       -1.46720        2.98180
C         -1.12700       -0.65360        3.65440
O          0.23960        0.53140        0.86250
Br         1.92280       -2.98270        3.78370
H          1.46880       -0.52060        3.77480
H         -0.73980       -2.24650        2.36210
H         -0.73900        0.14040        4.28510
H         -2.20170       -0.77830        3.57220
H          2.16780       -1.86810       -0.14730
H          0.60510       -2.11190        0.45580
