17
TSA8_9_H_OH_NO2
C          3.09580        0.61960       -1.37720
C          1.60980        0.44060       -1.53840
H          3.42020        0.22310       -0.38890
H          3.59450        0.01720       -2.16820
O          1.14070       -0.32830       -2.54470
C          3.53150        2.08930       -1.53880
C          3.04360        2.93490       -0.38230
C          2.21360        3.96780       -0.55110
O          0.83020        0.98020       -0.76770
N          4.97700        2.17230       -1.61490
H          3.11000        2.46580       -2.49930
H          3.38280        2.69490        0.62140
H          1.84810        4.24250       -1.53520
H          1.89280        4.54760        0.30860
H          0.19210       -0.46230       -2.68330
O          5.65860        1.80160       -0.70520
O          5.55180        2.64480       -2.70010
