17
TSA8_9_H_OH_NO2
C          2.08170        0.01070       -0.16290
C          1.52600        0.52710       -1.27030
H          2.48700        0.63360        0.62580
H          2.12950       -1.06590       -0.03100
O          1.03490       -0.32030       -2.19760
C          4.07740        2.98580       -2.14050
C          3.51640        2.85450       -0.92590
C          2.02100        2.88450       -0.76160
O          1.42730        1.87010       -1.49340
N          5.48710        2.96400       -2.33810
H          3.43460        3.11470       -3.00870
H          4.13440        2.72710       -0.04200
H          1.64730        3.86030       -1.13650
H          1.73700        2.80450        0.30980
H          0.63590        0.01150       -3.01390
O          6.23620        2.82410       -1.41820
O          5.97130        3.09880       -3.55290
