20
TSA8_9_I_CF3_CH2F
C          2.68330        2.27950       -1.21760
C          1.29770        1.75190       -0.71370
I          4.24670        1.28050       -0.11640
H          2.85700        1.97820       -2.27330
C          0.35670        1.40350       -1.87290
C          2.70240        3.81580       -1.09100
C          2.44620        4.23530        0.36920
C          1.51920        3.23300        1.07770
O          0.61810        2.66160        0.15600
C          3.95000        4.49330       -1.67580
H          1.83820        4.18060       -1.68890
H          3.37010        4.32510        0.98090
H          0.96680        3.75230        1.88740
H          2.10180        2.42840        1.58050
F         -0.82700        0.89880       -1.36680
F          0.07890        2.52890       -2.62820
F          0.93410        0.44100       -2.68130
F          5.09470        4.14880       -0.98090
H          3.82990        5.59650       -1.62710
H          4.07170        4.20440       -2.74120
