18
TSA8_9_Me_OH_I
C          0.75380       -1.32620        0.56240
C          2.18330       -1.32450        1.07050
C          0.72850       -1.06640       -0.94990
H          0.21670       -0.47600        1.03610
O          2.58940       -0.40590        1.97280
C         -0.01090       -2.62740        0.93870
C         -0.01940       -2.86890        2.43170
C         -0.54850       -1.99650        3.29610
O          2.98530       -2.15090        0.66380
I          0.75590       -4.39710       -0.03460
H         -1.06490       -2.52900        0.59860
H          0.41140       -3.78440        2.82510
H         -0.53280       -2.21350        4.35950
H         -0.99830       -1.06880        2.95920
H          1.26680       -1.86050       -1.50800
H          1.21750       -0.09430       -1.17500
H         -0.31970       -1.02100       -1.31400
H          1.99100        0.26830        2.32390
