18
TSA8_9_Me_OH_I
C          1.93700       -0.03570        0.10420
C          1.28490       -0.49040        1.18990
C          2.03950       -0.80770       -1.18200
H          2.41550        0.93900        0.13930
O          1.22820        0.26720        2.31310
C         -1.30500       -4.27980        2.71540
C         -0.54640       -3.58440        1.86390
C         -0.06600       -2.20660        2.20780
O          0.68260       -1.70540        1.16440
I         -1.96710       -6.22170        2.22020
H         -1.59250       -3.85890        3.67430
H         -0.27210       -4.02670        0.91000
H          0.55530       -2.25740        3.12890
H         -0.94200       -1.54470        2.38750
H          1.52200       -1.78840       -1.13450
H          3.10900       -0.98480       -1.41740
H          1.58400       -0.21100       -1.99950
H          1.64660        1.13830        2.37810
