18
TSA8_9_Me_OH_I
C          0.27030       -1.28430        0.38110
C          1.06240       -0.54630        1.47670
C          1.25140       -1.81620       -0.67860
H         -0.40790       -0.56830       -0.13290
O          0.23420        0.21760        2.30800
C         -0.57540       -2.38780        1.05650
C          0.31140       -3.27650        1.92990
C          1.09140       -2.39110        2.91190
O          1.88350       -1.42770        2.23210
I         -1.71910       -3.56840       -0.32240
H         -1.31940       -1.89870        1.72360
H          1.01800       -3.86210        1.30550
H          1.76230       -3.04270        3.50960
H          0.40330       -1.90100        3.63590
H          0.70730       -2.32640       -1.49930
H          1.99050       -2.52140       -0.24660
H          1.81110       -0.96710       -1.12520
H          0.56000        1.14670        2.19950
