24
TSA8_9_Me_OMe_CBr3
C          3.07530        0.80310        1.54980
C          2.13320        1.96920        1.34040
C          2.39220       -0.49670        1.09660
H          3.94420        0.94400        0.87160
O          2.48090        2.94870        0.46790
C          3.62380        0.66920        3.01230
C          2.50380        0.41750        4.00960
C          2.39760       -0.73130        4.68370
O          1.06590        2.01900        1.93710
C          4.51660        1.85730        3.48860
H          4.29690       -0.22020        2.99770
H          1.76120        1.18770        4.18910
H          1.58180       -0.87150        5.38640
H          3.11090       -1.53590        4.54240
H          1.49510       -0.71740        1.71290
H          3.09900       -1.34990        1.17940
H          2.07840       -0.41290        0.03380
C          1.73620        4.09020        0.26460
H          2.22050        4.70700       -0.52010
H          1.68570        4.68120        1.20390
H          0.70910        3.82770       -0.06780
Br         5.30000        1.44070        5.21910
Br         6.01080        2.15540        2.28150
Br         3.56900        3.54540        3.69910
