23
TSA8_9_H_CCl3_Et
C          3.09880        1.37090        0.44970
C          2.14370        2.17200       -0.41890
H          2.48900        0.63270        1.01220
H          3.78840        0.77830       -0.18430
C          2.20190        2.11860       -1.93330
C          3.91670        2.21770        1.46900
C          3.00810        2.99690        2.40270
C          2.13070        2.39360        3.21160
O          1.26700        2.83010        0.12390
C          4.91640        3.18480        0.79290
H          4.51210        1.52350        2.10300
H          3.06970        4.08200        2.43240
H          1.50230        2.98720        3.86740
H          2.03300        1.31320        3.23200
Cl         3.74390        2.76180       -2.54200
Cl         2.02000        0.43420       -2.48620
Cl         0.89080        3.08100       -2.67700
C          6.04680        2.46230        0.05380
H          5.40390        3.79930        1.58240
H          4.38340        3.87520        0.10500
H          6.60910        1.81260        0.75770
H          6.74790        3.21220       -0.36930
H          5.67030        1.83930       -0.77850
