23
TSA8_9_H_CCl3_Et
C          3.43010        2.24240       -0.17090
C          1.93170        1.87060       -0.09050
H          3.98220        1.47600       -0.74990
H          3.54150        3.22780       -0.67420
C          1.26520        1.67080       -1.46400
C          3.99540        2.31900        1.26240
C          3.11120        3.25610        2.09760
C          1.65200        2.79960        1.99000
O          1.23050        2.85560        0.64320
C          5.45890        2.80640        1.30760
H          3.94050        1.30640        1.72300
H          3.18960        4.29960        1.71950
H          1.02090        3.48950        2.58770
H          1.50990        1.77950        2.41640
Cl         1.31610        3.16560       -2.43990
Cl         2.05430        0.35500       -2.37410
Cl        -0.44100        1.21220       -1.23020
C          6.43420        1.86220        0.60410
H          5.77410        2.88170        2.37170
H          5.53630        3.81700        0.85030
H          6.39050        0.85200        1.06380
H          7.46700        2.25590        0.71030
H          6.21040        1.78550       -0.47920
