21
TSA8_9_CN_CF3_CH2F
C          1.63570       -0.04710       -0.04630
C          1.50730       -0.35060       -1.37930
C          1.80760        1.25730        0.53480
H          1.53800       -0.83400        0.67390
C          1.42230       -1.80040       -1.77950
C          3.65630        2.72610       -3.49810
C          3.01220        2.22800       -2.42800
C          1.53640        1.91890       -2.45190
O          1.34920        0.55150       -2.40650
C          5.12990        3.03930       -3.46400
H          3.12030        2.90840       -4.42400
H          3.58140        2.04330       -1.52080
H          1.09060        2.30320       -3.39790
H          1.00080        2.42890       -1.63060
N          1.94590        2.31950        0.97080
F          0.09920       -2.08210       -1.95080
F          2.07730       -2.03600       -2.98120
F          1.96070       -2.64720       -0.82070
F          5.40410        3.98030       -2.48640
H          5.45770        3.44470       -4.44720
H          5.71060        2.11730       -3.25730
