19
TSA8_9_CN_OH_CBr3
C          2.29330       -0.73420        1.68600
C          2.60510        0.68750        2.06060
C          2.91820       -1.18300        0.43240
H          1.25110       -0.58960        1.37740
O          2.49880        1.63070        1.10130
C          2.30240       -1.81140        2.83860
C          1.12220       -2.71480        2.57050
C         -0.10960       -2.24430        2.79390
O          2.64590        1.02050        3.23710
C          3.57070       -2.65460        3.21870
H          2.06530       -1.27680        3.78080
H          1.24970       -3.70390        2.13980
H         -0.23920       -1.24410        3.20700
H         -0.98170       -2.83390        2.55770
N          3.38970       -1.48990       -0.58850
H          2.42270        2.56810        1.31790
Br         3.18500       -3.64130        4.86330
Br         4.08770       -3.99050        1.89850
Br         5.12270       -1.56350        3.60280
