21
TSA8_9_OH_F_Et
C          2.98780       -0.13840        0.84690
C          2.47470        1.25130        1.12730
O          1.88950       -0.99240        0.66260
H          3.54560       -0.08880       -0.11370
F          2.77550        2.26730        0.27680
C          3.93450       -0.67080        1.97080
C          3.24090       -0.76500        3.32220
C          2.20300       -1.57550        3.55630
O          1.77670        1.47480        2.10340
C          5.21010        0.19920        2.12770
H          4.27090       -1.69580        1.69740
H          3.60720       -0.16470        4.15140
H          1.75470       -1.60490        4.54400
H          1.79620       -2.22060        2.78660
H          2.22070       -1.78350        0.16120
C          6.10570        0.21420        0.88650
H          5.82070       -0.22230        2.95710
H          4.93980        1.24300        2.39910
H          6.40470       -0.82110        0.61650
H          7.02320        0.80040        1.10410
H          5.60240        0.69190        0.02280
