21
TSA8_9_OH_F_Et
C          3.08180        0.07450        0.96790
C          2.18510        1.05940        1.73150
O          2.24640       -0.86440        0.33680
H          3.64200        0.62200        0.18160
F          1.42190        1.77750        0.82860
C          4.03150       -0.64070        1.97550
C          3.37740       -0.72590        3.37540
C          1.85160       -0.76620        3.25630
O          1.30830        0.41010        2.65470
C          5.41360        0.03980        2.12620
H          4.21690       -1.67220        1.60170
H          3.59780        0.19270        3.96610
H          1.43770       -0.85180        4.28260
H          1.53290       -1.66660        2.68900
H          2.79420       -1.31340       -0.35890
C          6.26560       -0.01740        0.85460
H          5.98470       -0.49860        2.91520
H          5.29050        1.09790        2.44590
H          6.41590       -1.07280        0.54190
H          7.25950        0.43290        1.05940
H          5.80940        0.54710        0.01880
