24
TSA8_9_CBr3_CCl3_OMe
C          1.94150        0.04720       -0.10710
C          1.31880        0.06400       -1.31630
C          2.08430        1.18310        0.89450
H          2.40640       -0.86460        0.24110
C          1.27820       -1.19990       -2.20130
C         -0.14790        3.52330       -4.10030
C         -0.38440        2.90490       -2.92640
C         -0.15260        1.43050       -2.75760
O          0.75590        1.23280       -1.73550
O         -0.33500        4.85630       -4.30150
H          0.21210        2.94100       -4.94280
H         -0.75020        3.46010       -2.06870
H          0.21870        0.99490       -3.70550
H         -1.11950        0.95540       -2.49120
Br         1.29330        0.60330        2.56350
Br         3.97330        1.47660        1.19890
Br         1.30020        2.91490        0.46920
Cl         2.11320       -0.87250       -3.74300
Cl         2.08360       -2.64790       -1.51570
Cl        -0.39980       -1.69900       -2.53430
C         -0.74410        5.77020       -3.35240
H         -0.80340        6.77450       -3.81990
H         -0.00990        5.80980       -2.51940
H         -1.74900        5.50000       -2.96430
