24
TSA8_9_CBr3_CCl3_OMe
C          1.39120        1.86460       -1.67580
C          0.86780        0.50440       -2.25100
C          1.65090        1.89900       -0.11650
H          2.36370        2.11870       -2.14990
C          1.72810       -0.76860       -2.34710
C          0.37870        2.90680       -2.25990
C         -1.07380        2.54010       -1.92660
C         -1.33850        1.10230       -2.39520
O         -0.43370        0.20800       -1.78290
O          0.67920        4.22760       -1.84940
H          0.48570        2.81460       -3.37140
H         -1.27000        2.64580       -0.84250
H         -1.28090        1.02440       -3.50560
H         -2.37250        0.82030       -2.10790
Br         0.19360        1.24920        0.99670
Br         3.22860        0.87430        0.35620
Br         2.11680        3.66730        0.54600
Cl         3.39030       -0.40600       -2.88120
Cl         1.74600       -1.71040       -0.83200
Cl         0.99890       -1.81860       -3.58650
C          0.23070        5.16530       -2.80450
H          0.78590        5.05990       -3.76250
H          0.43940        6.18390       -2.41790
H         -0.86850        5.09440       -2.95960
