20
TSA8_9_Cl_CCl3_Me
C          2.09230       -0.86670       -2.25830
C          0.95410       -1.85590       -2.11470
Cl         1.75400        0.51860       -1.17530
H          3.03990       -1.33640       -1.91430
C          1.18330       -3.23420       -1.52750
C          2.26640       -0.37240       -3.71780
C          3.41550        0.60840       -3.79460
C          3.24350        1.87470       -4.18590
O         -0.17060       -1.51690       -2.45600
C          2.54690       -1.52460       -4.69120
H          1.32140        0.12190       -4.03910
H          4.41300        0.27380       -3.52240
H          2.26370        2.24950       -4.46500
H          4.09300        2.54860       -4.22710
Cl         2.36580       -4.14840       -2.49680
Cl         1.80380       -3.08150        0.13630
Cl        -0.32810       -4.18580       -1.46500
H          1.70340       -2.24620       -4.69930
H          3.47960       -2.05950       -4.41020
H          2.66040       -1.12980       -5.72390
