20
TSA8_9_Cl_CCl3_Me
C          2.73970       -1.35340       -2.54440
C          1.42630       -0.90770       -1.81620
Cl         4.11040       -0.40130       -1.89490
H          2.97290       -2.41880       -2.33410
C          0.61560       -2.07430       -1.21970
C          2.57030       -1.14540       -4.06300
C          2.20780        0.32120       -4.36800
C          1.34280        0.91560       -3.24480
O          0.57800       -0.10120       -2.63660
C          3.77670       -1.60940       -4.88300
H          1.70200       -1.76740       -4.37250
H          3.09050        0.98460       -4.50050
H          0.68180        1.70390       -3.66140
H          1.97540        1.42410       -2.48100
Cl         0.07620       -3.21440       -2.48300
Cl         1.58410       -2.95800       -0.00930
Cl        -0.82570       -1.43810       -0.38570
H          3.98100       -2.68290       -4.68300
H          4.68170       -1.01810       -4.63060
H          3.56500       -1.48910       -5.96710
