20
TSA8_9_CF3_CH2F_Br
C          2.66640        0.94310        0.61910
C          1.21650        1.46160        0.76950
C          2.70430       -0.59170        0.81710
H          3.00140        1.07420       -0.43370
C          0.92920        2.79260        0.06550
C          3.63770        1.69840        1.56970
C          2.90570        2.44850        2.69120
C          1.65920        1.68440        3.13790
O          0.70490        1.43380        2.10360
Br         4.72140        2.98630        0.59250
H          4.35610        0.97710        2.01370
H          2.56830        3.44660        2.35170
H          1.16430        2.29370        3.92280
H          1.95670        0.73340        3.61940
F          3.98650       -1.06010        0.58670
F          2.32050       -0.97410        2.08590
F          1.85600       -1.19490       -0.09540
F         -0.42270        3.07060        0.13930
H          1.21160        2.70910       -1.00480
H          1.49040        3.63860        0.49990
