22
TSA8_9_CBr3_NH2_CCl3
C          1.75420       -0.03700        0.12880
C          1.43900       -0.63790        1.29840
C          1.94460       -0.67460       -1.23680
H          1.90140        1.03990        0.14960
N          1.28500        0.15550        2.46770
C          2.50230       -3.49320        4.23850
C          2.63840       -2.57240        3.27110
C          2.23900       -2.85030        1.84430
O          1.26340       -1.97860        1.38800
C          2.92030       -3.21860        5.66030
H          2.08560       -4.46700        3.99470
H          3.06410       -1.60280        3.51030
H          1.85010       -3.88590        1.74220
H          3.14170       -2.76430        1.20180
Br         0.79750        0.24550       -2.49580
Br         3.77800       -0.38810       -1.78270
Br         1.56120       -2.57350       -1.42510
H          1.41140        1.17760        2.44070
H          1.01010       -0.28170        3.35880
Cl         2.61790       -4.65520        6.67010
Cl         4.66140       -2.83760        5.73450
Cl         1.99010       -1.85240        6.32910
