14
TSA8_9_Cl_H_F
C          2.01490        0.14790        0.04720
C          1.26180        1.22860       -0.16860
Cl         2.37410       -0.41170        1.67560
H          2.41450       -0.40620       -0.79610
H          1.05870        1.53580       -1.19230
C         -0.18910        4.83680        2.36920
C         -0.46310        3.57490        2.02260
C         -0.07580        3.01650        0.68460
O          0.75150        1.93210        0.86930
F         -0.55870        5.30090        3.59120
H          0.32700        5.50500        1.68700
H         -0.98250        2.93140        2.72670
H          0.44370        3.78340        0.06640
H         -0.99830        2.69560        0.15290
