18
TSA8_9_CF3_F_OH
C          1.82450        0.03930        0.04720
C          1.16210        0.72350        0.99470
C          2.04990       -1.45260        0.04460
H          2.22830        0.59640       -0.79360
F          1.02860        2.07190        0.84930
C         -0.22220        0.01370        5.37540
C         -0.53930       -0.19970        4.09010
C         -0.14210        0.76260        3.00740
O          0.63040        0.10450        2.07590
O         -0.58570       -0.86030        6.34120
H          0.33450        0.89950        5.66310
H         -1.10010       -1.08720        3.81090
H          0.42730        1.62120        3.42940
H         -1.06210        1.15000        2.51970
F          3.40920       -1.70180        0.02650
F          1.49920       -2.08170        1.14700
F          1.48210       -1.98600       -1.09640
H         -1.08180       -1.66940        6.14890
