19
TSA8_9_CCl3_Cl_NH2
C          1.60000       -1.45420       -1.36580
C          1.23120       -1.32670        0.10160
C          1.59330       -0.04600       -2.05640
H          2.65800       -1.79860       -1.39740
Cl         2.41630       -1.70830        1.34200
C          0.76470       -2.61980       -2.00390
C         -0.73360       -2.38330       -2.04120
C         -1.58980       -3.14290       -1.35050
O          0.11610       -0.96380        0.44220
N          1.24410       -2.96940       -3.34220
H          0.96870       -3.50430       -1.35510
H         -1.13630       -1.58940       -2.65830
H         -1.24220       -3.95840       -0.72410
H         -2.65580       -2.94880       -1.41150
Cl         2.22460       -0.09200       -3.72370
Cl        -0.00650        0.74860       -2.08390
Cl         2.69350        1.05260       -1.17210
H          0.87090       -2.29780       -4.04890
H          0.86710       -3.91070       -3.60030
