19
TSA8_9_CCl3_Cl_NH2
C          1.45830       -1.60710       -1.71770
C          1.08640       -1.70700       -0.22010
C          1.52210       -0.10270       -2.16130
H          2.49650       -1.98620       -1.84660
Cl         1.61650       -3.22890        0.56930
C          0.51250       -2.57250       -2.49580
C         -0.95430       -2.30070       -2.15620
C         -1.12970       -2.34210       -0.63250
O         -0.28250       -1.41050        0.02530
N          0.72800       -2.53840       -3.93940
H          0.72460       -3.60880       -2.14420
H         -1.29490       -1.33320       -2.56770
H         -0.96450       -3.37170       -0.24630
H         -2.18450       -2.09070       -0.39800
Cl         2.06160        0.07580       -3.85350
Cl         0.00680        0.82390       -1.97000
Cl         2.75020        0.73810       -1.17170
H          0.07310       -3.20820       -4.40280
H          1.70150       -2.86060       -4.14220
