20
TSA8_9_CBr3_CBr3_Cl
C          2.03300       -0.07570       -0.05600
C          1.63550       -1.04980        0.80320
C          1.79780        0.01760       -1.55420
H          2.59930        0.76220        0.32500
C          1.91450       -0.96260        2.31000
C          1.13950       -5.65460        1.06270
C          0.79470       -4.36380        1.07820
C          1.47070       -3.38400        0.16770
O          0.93640       -2.11920        0.34100
Cl         0.35270       -6.80050        2.13480
H          1.91190       -6.01280        0.38800
H          0.02140       -4.02140        1.76010
H          1.31030       -3.69980       -0.88390
H          2.56680       -3.38730        0.35290
Br         0.96780        1.72890       -1.91710
Br         3.52060       -0.00990       -2.43530
Br         0.67960       -1.32210       -2.41350
Br         2.79850        0.66270        2.93310
Br         0.21850       -1.04550        3.24290
Br         3.01430       -2.43000        2.94060
