20
TSA8_9_CBr3_CBr3_Cl
C          2.38020       -1.82090        0.28200
C          0.96550       -1.37000        0.77130
C          2.86670       -0.90760       -0.89420
H          3.06400       -1.69640        1.14930
C          0.71000       -0.89760        2.23550
C          2.36460       -3.32710       -0.12810
C          1.35770       -4.07600        0.71760
C         -0.04390       -3.49830        0.42580
O         -0.10970       -2.09180        0.19810
Cl         3.96260       -4.10670        0.06180
H          2.03190       -3.45870       -1.17830
H          1.65100       -3.98340        1.77670
H         -0.76290       -3.80590        1.21310
H         -0.37190       -3.97190       -0.52350
Br         2.91690        0.96680       -0.39710
Br         4.66760       -1.32700       -1.48760
Br         1.69220       -1.02150       -2.44530
Br         2.02290        0.39410        2.84300
Br        -1.00950       -0.00730        2.30040
Br         0.66500       -2.30140        3.57080
