22
TSA8_9_CH2F_NO2_CCl3
C          2.18670       -0.24880       -2.07660
C          0.92030       -1.07570       -2.24380
C          1.90560        0.78190       -0.95870
H          3.01520       -0.89500       -1.71810
N          0.90140       -2.41540       -1.99070
C          2.63610        0.42770       -3.42400
C          3.87880        1.26560       -3.17320
C          3.89370        2.59010       -3.35670
O         -0.10600       -0.51420       -2.60760
C          2.94640       -0.57060       -4.59140
H          1.81220        1.09340       -3.76870
H          4.78710        0.77690       -2.83210
H          3.00990        3.12150       -3.69500
H          4.80180        3.15240       -3.16520
F          3.04280        1.48490       -0.60530
H          1.55370        0.25340       -0.04620
H          1.11690        1.49840       -1.27440
O         -0.10970       -3.03710       -2.12770
O          1.98730       -3.04390       -1.59330
Cl         3.52710        0.31980       -6.03120
Cl         4.20540       -1.75770       -4.14040
Cl         1.51210       -1.47290       -5.15470
