22
TSA8_9_CH2F_NO2_CCl3
C          1.57220       -0.01840       -0.10750
C          1.35850       -0.67590       -1.27820
C          1.79990        1.45860        0.06570
H          1.54970       -0.58120        0.82060
N          1.06760       -2.07450       -1.25870
C          3.03500        0.60950       -5.37790
C          3.04000        0.09990       -4.13690
C          2.37620        0.77630       -2.97590
O          1.39580       -0.07210       -2.49960
C          3.70280       -0.11320       -6.51990
H          2.53590        1.55650       -5.56760
H          3.53440       -0.84910       -3.94730
H          1.91510        1.74330       -3.26940
H          3.16890        0.96070       -2.21830
F          3.04590        1.67000        0.62480
H          1.02520        1.85230        0.75650
H          1.71160        2.04190       -0.86720
O          0.87510       -2.65190       -2.28720
O          1.01280       -2.74570       -0.12810
Cl         3.50830        0.81340       -8.02820
Cl         5.44690       -0.30750       -6.19790
Cl         2.96730       -1.72250       -6.74990
