18
TSA8_9_CN_CH2F_Cl
C          2.68470       -0.70720       -1.01030
C          1.31860       -1.34600       -0.65380
C          2.42160        0.73590       -1.15490
H          3.43070       -0.84000       -0.19510
C          1.41210       -2.20820        0.60920
C          3.20030       -1.36050       -2.30560
C          2.20500       -1.08820       -3.42670
C          0.77060       -1.37070       -2.94150
O          0.74750       -2.10290       -1.72300
Cl         4.84380       -0.85410       -2.77540
H          3.24390       -2.46290       -2.15040
H          2.26770       -0.02240       -3.75390
H          0.29160       -1.97940       -3.73440
H          0.17350       -0.43410       -2.85240
N          2.19240        1.86180       -1.29460
F          2.21610       -3.31320        0.39140
H          0.39860       -2.54510        0.90600
H          1.83390       -1.61220        1.44850
