16
TSA8_9_NO2_I_Cl
C          0.70740       -1.26790        0.62090
C          2.07060       -0.92290        1.17820
N          0.74870       -1.24580       -0.83570
H         -0.00040       -0.47280        0.94000
I          2.31940        0.80600        2.36570
C          0.17720       -2.61980        1.18860
C          0.07440       -2.60110        2.69800
C         -0.70720       -1.73510        3.35130
O          3.04170       -1.62390        0.94130
Cl         1.20900       -4.00750        0.70630
H         -0.83950       -2.80610        0.77860
H          0.64570       -3.31820        3.28100
H         -0.75210       -1.75910        4.43530
H         -1.30570       -1.00250        2.82030
O          1.07400       -0.24490       -1.40070
O          0.37640       -2.28830       -1.54960
