27
TSA8_9_Et_OMe_CHF2
C          2.91770        1.42230       -0.71910
C          1.99430        0.83930       -1.77040
C          2.49950        0.79620        0.64490
H          3.93880        1.06130       -0.97220
O          2.51830        0.06160       -2.75230
C          2.91650        2.98450       -0.86980
C          1.67130        3.61410       -0.28470
C          0.77640        4.25660       -1.04140
O          0.79260        1.07220       -1.73510
C          4.18250        3.70930       -0.35940
H          2.95470        3.18090       -1.96760
H          1.49820        3.54700        0.78500
H          0.90920        4.34890       -2.11480
H         -0.10350        4.69620       -0.58310
C          3.35800        1.13620        1.85530
H          2.56020       -0.30870        0.52240
H          1.44290        1.04580        0.88560
H          4.43040        0.93660        1.64710
H          3.03910        0.50520        2.71190
H          3.19060        2.17790        2.17470
C          1.77420       -0.49360       -3.77170
H          2.44370       -1.08230       -4.43170
H          1.29320        0.30740       -4.37240
H          0.99700       -1.16910       -3.35460
F          4.32730        3.69560        1.00780
F          5.31420        3.16570       -0.94130
H          4.12430        4.77630       -0.66560
