27
TSA8_9_Et_OMe_CHF2
C          2.64130        1.44050       -0.75860
C          1.34730        1.00640       -1.52190
C          2.40440        1.15420        0.74740
H          3.47390        0.78470       -1.09780
O          1.46900       -0.20380       -2.24350
C          2.94710        2.91290       -1.18120
C          1.71450        3.82450       -1.00220
C          0.41140        3.07600       -1.32230
O          0.66380        2.03180       -2.23400
C          4.21030        3.59060       -0.63170
H          3.11570        2.83940       -2.27980
H          1.61850        4.26890        0.01190
H         -0.32970        3.78730       -1.74140
H         -0.05160        2.67260       -0.38980
C          3.67320        1.05180        1.59890
H          1.94240        0.14470        0.82920
H          1.69030        1.88540        1.18080
H          4.34360        0.26600        1.19050
H          3.39080        0.76400        2.63360
H          4.23970        1.98800        1.66980
C          2.00450        0.04140       -3.52680
H          2.34570       -0.92300       -3.95510
H          2.89570        0.70680       -3.49990
H          1.22150        0.45000       -4.20220
F          4.05790        3.98230        0.68440
F          5.30870        2.75940       -0.76290
H          4.39980        4.51700       -1.21610
