20
TSA8_9_F_CCl3_CHF2
C          3.21260       -1.81850        1.25690
C          1.68940       -1.50880        1.06140
F          3.90900       -1.30240        0.17660
H          3.60760       -1.32940        2.17230
C          0.99480       -0.93360        2.31100
C          3.41760       -3.34280        1.32090
C          2.86480       -3.99950        0.03840
C          1.64950       -3.22570       -0.49760
O          0.94980       -2.62840        0.57110
C          4.87330       -3.75680        1.58180
H          2.80810       -3.71730        2.17170
H          3.60500       -4.06430       -0.78890
H          0.98720       -3.91500       -1.06050
H          1.96860       -2.44300       -1.22640
Cl         1.03240       -2.08080        3.67730
Cl         1.76400        0.59680        2.81150
Cl        -0.70830       -0.56910        1.93030
F          5.70300       -3.32080        0.56340
F          5.31110       -3.22450        2.78110
H          4.93890       -4.86390        1.64580
