15
TSA8_9_Br_CN_F
C          1.71670       -0.08300        0.02250
C          1.57860       -1.37280       -0.32790
Br         1.83330        1.30770       -1.30200
H          1.58750        0.23690        1.04960
C          1.26190       -2.39360        0.64550
C          0.05470       -2.69260       -4.55130
C          0.37760       -1.75480       -3.66270
C          0.35010       -2.01970       -2.19900
O          1.56930       -1.70210       -1.63510
F          0.08560       -2.40000       -5.87550
H         -0.23950       -3.68810       -4.23220
H          0.64850       -0.75910       -4.00120
H          0.04010       -3.05350       -1.93630
H         -0.42170       -1.33870       -1.79850
N          1.00690       -3.23950        1.39290
