21
TSA8_9_Me_CF3_CN
C          1.74710       -1.36910       -1.07960
C          2.24210       -1.88620        0.29420
C          2.22910        0.03380       -1.51930
H          0.66610       -1.20600       -0.93750
C          2.26870       -1.06640        1.56560
C          1.85480       -2.41620       -2.25320
C          1.12560       -3.68350       -1.87830
C         -0.18500       -3.64970       -1.61250
O          2.41470       -3.08810        0.43950
C          3.21700       -2.71880       -2.74260
H          1.33050       -1.99740       -3.13850
H          1.66220       -4.62600       -1.78930
H         -0.71000       -4.54230       -1.30200
H         -0.74360       -2.72110       -1.69990
H          1.94070        0.20930       -2.58190
H          3.32060        0.20320       -1.43120
H          1.68450        0.81450       -0.94090
F          2.89500       -1.78790        2.57480
F          2.96090        0.11640        1.39470
F          0.97560       -0.79870        1.96830
N          4.25300       -3.00560       -3.18640
