21
TSA8_9_Me_CF3_CN
C          2.18080       -1.33910       -1.11070
C          1.12400       -1.50760        0.03960
C          2.07890        0.10620       -1.66650
H          3.17480       -1.51190       -0.64730
C          1.78540       -1.12080        1.38810
C          2.00960       -2.35260       -2.28640
C          1.49990       -3.69900       -1.79670
C          0.24950       -3.41490       -0.97420
O          0.64370       -2.82600        0.23640
C          3.25710       -2.53180       -3.04670
H          1.22890       -2.00050       -2.98820
H          2.24270       -4.22290       -1.15390
H         -0.25690       -4.37140       -0.74400
H         -0.49200       -2.78090       -1.52070
H          1.33210        0.17170       -2.49100
H          3.05180        0.46240       -2.05760
H          1.71710        0.82370       -0.89970
F          2.73710       -2.07610        1.72340
F          2.40960        0.11110        1.33090
F          0.83490       -1.09230        2.39030
N          4.25690       -2.68830       -3.61140
