17
TSA8_9_H_CN_NH2
C          2.78870       -0.76450        1.40580
C          1.96050        0.18400        2.23300
H          2.23690       -0.84050        0.44050
H          3.77030       -0.32860        1.12370
C          1.80590        1.55490        1.79900
C          2.96010       -2.16750        2.05390
C          2.16310       -3.15140        1.24070
C          0.87150       -3.34170        1.50680
O          1.28530       -0.18570        3.17530
N          4.36860       -2.57080        2.14690
H          2.58420       -2.16630        3.10120
H          2.60500       -3.60890        0.35890
H          0.40660       -2.83930        2.35060
H          0.27150       -3.97640        0.86880
N          1.67690        2.65860        1.46600
H          4.77820       -2.75680        1.20510
H          4.44130       -3.44670        2.71980
