17
TSA8_9_H_CN_NH2
C          1.64600        0.01440        0.05520
C          1.52690        0.21850        1.39130
H          1.58350       -0.96570       -0.41310
H          1.57750        0.85090       -0.63520
C          1.34640        1.55880        1.87020
C          3.38380       -3.47940        2.72330
C          2.85160       -2.56800        1.89740
C          1.42010       -2.13520        2.04490
O          1.36780       -0.78220        2.30420
N          4.71550       -3.93630        2.56330
H          2.78590       -3.89750        3.52660
H          3.45420       -2.14040        1.10000
H          0.92330       -2.69220        2.87180
H          0.84260       -2.37750        1.12740
N          1.19840        2.62690        2.28550
H          5.31320       -3.60120        1.79370
H          5.08090       -4.65980        3.19930
