18
TSA8_9_I_I_OMe
C          2.78430       -0.86090        1.49000
C          1.28060       -0.92440        1.54290
I          3.38340        0.22780       -0.26530
H          3.11310       -0.25570        2.36200
I          0.24050       -0.06500        3.16760
C          3.52350       -2.22100        1.60590
C          3.25520       -3.18720        0.46500
C          2.10220       -3.84500        0.31510
O          0.63460       -1.40500        0.62400
O          4.91240       -1.93090        1.63700
H          3.20500       -2.68330        2.57160
H          4.05510       -3.39680       -0.23920
H          1.28330       -3.72140        1.01400
H          1.98070       -4.54140       -0.50810
C          5.65850       -2.96920        2.24820
H          6.09080       -2.59590        3.20120
H          6.48350       -3.26040        1.56560
H          5.08280       -3.89840        2.46260
