18
TSA8_9_I_I_OMe
C          2.04160       -0.13030        0.36870
C          1.34500       -0.87140        1.25750
I          3.11680       -0.71300       -1.36770
H          2.06340        0.94370        0.51960
I          0.38210        0.16200        2.82940
C          3.53860       -3.45390        2.48170
C          3.32970       -3.23220        1.16970
C          1.93040       -3.20050        0.61600
O          1.18600       -2.22730        1.25310
O          4.77120       -3.48480        3.05710
H          2.68100       -3.61630        3.12840
H          4.15930       -3.07000        0.49030
H          1.45790       -4.18650        0.81130
H          1.91490       -3.05820       -0.47990
C          5.97110       -3.26930        2.41220
H          6.79630       -3.35550        3.14880
H          5.99200       -2.24840        1.97430
H          6.12250       -4.02930        1.61690
