20
TSA8_9_H_CHF2_Me
C          2.99130        2.23510       -0.95890
C          1.60770        1.55280       -0.71570
H          3.70500        1.89130       -0.17840
H          3.41390        1.93810       -1.94350
C          0.85280        1.30540       -2.02550
C          2.83270        3.75350       -0.81870
C          2.30840        4.08570        0.59550
C          1.49540        2.91800        1.18280
O          0.75060        2.27700        0.17140
C          4.13330        4.50300       -1.11580
H          2.07090        4.08400       -1.55570
H          3.11900        4.30700        1.32460
H          0.81990        3.29980        1.97580
H          2.16620        2.17710        1.67790
F         -0.30920        0.60420       -1.76150
F          0.52790        2.49780       -2.64590
H          1.47880        0.69660       -2.71130
H          4.47250        4.28030       -2.14980
H          4.93110        4.19900       -0.40450
H          3.96960        5.59810       -1.02770
