23
TSA8_9_Cl_Et_CF3
C          2.17780        1.93580        0.97820
C          0.94520        2.46040        0.28310
Cl         1.90660        0.19920        1.32330
H          3.05160        2.00640        0.29310
C          1.04570        3.00080       -1.12400
C          2.49460        2.71320        2.28530
C          3.69490        2.09060        2.96860
C          3.61600        1.56050        4.19350
O         -0.13020        2.43780        0.86740
C          2.79240        4.20870        2.03350
H          1.60940        2.64810        2.95780
H          4.64960        2.07210        2.44990
H          2.68150        1.55760        4.74640
H          4.49580        1.12200        4.65260
C         -0.29610        3.48170       -1.67660
H          1.43800        2.20050       -1.78750
H          1.76070        3.85110       -1.13210
H         -1.02390        2.64260       -1.70490
H         -0.15810        3.86620       -2.70890
H         -0.70290        4.29970       -1.04420
F          3.87050        4.35290        1.17690
F          1.69540        4.84690        1.48370
F          3.09000        4.83280        3.23290
