20
TSA8_9_H_Me_CF3
C          2.90700        2.43160        0.82510
C          1.60480        1.61510        0.55310
H          3.73310        1.73150        1.07800
H          3.21800        2.98750       -0.08620
C          0.67620        2.36580       -0.40130
C          2.66930        3.35260        2.02970
C          2.30760        2.49220        3.26300
C          1.69520        1.14080        2.85250
O          0.85590        1.29420        1.72940
C          3.86080        4.28020        2.31640
H          1.79160        3.99130        1.79070
H          3.18190        2.25890        3.90960
H          1.12100        0.72380        3.70540
H          2.49180        0.39610        2.62140
H          0.33550        3.32330        0.04500
H         -0.21310        1.73870       -0.62110
H          1.19860        2.57320       -1.35890
F          4.99590        3.54110        2.60300
F          4.11240        5.07750        1.21390
F          3.57040        5.09730        3.39450
