21
TSA8_9_F_CBr3_OMe
C          3.13860        1.59650        0.26320
C          1.69550        1.57580       -0.19640
F          3.56540        0.28760        0.41540
H          3.75690        2.08040       -0.52250
C          1.29750        2.17050       -1.53010
C          3.32050        2.40990        1.57640
C          2.60700        1.78330        2.75990
C          1.60570        2.40240        3.39360
O          0.84880        1.05780        0.51660
O          4.67820        2.70280        1.89520
H          2.86210        3.40280        1.37010
H          2.90700        0.80090        3.10930
H          1.26370        3.38510        3.08410
H          1.11820        1.92100        4.23520
Br         2.22750        1.25870       -2.96660
Br        -0.61190        2.00740       -1.86210
Br         1.74720        4.05600       -1.58390
C          5.52030        1.56860        1.92730
H          6.45230        1.84790        2.46000
H          5.81270        1.26900        0.89890
H          5.08540        0.72090        2.49560
