21
TSA8_9_F_CBr3_OMe
C          3.26780        1.53060        0.37340
C          1.73820        1.66020        0.06670
F          3.48200        0.25460        0.86660
H          3.88030        1.65220       -0.54470
C          1.41010        2.18480       -1.34370
C          3.66720        2.59460        1.42440
C          2.80050        2.48320        2.69340
C          1.39520        1.97030        2.33920
O          1.02990        2.41580        1.05010
O          5.05430        2.72590        1.71250
H          3.37980        3.56070        0.95760
H          3.21340        1.81960        3.48110
H          0.66590        2.32820        3.09510
H          1.35970        0.85540        2.38260
Br         2.15820        1.02070       -2.70620
Br        -0.51190        2.19170       -1.59990
Br         2.06580        3.99090       -1.62200
C          5.68760        1.49620        1.99140
H          6.66430        1.71200        2.47070
H          5.90110        0.94570        1.05040
H          5.12040        0.87210        2.71360
