26
TSA8_9_CBr3_Et_Me
C          1.57730        0.07930       -0.15380
C          1.37770        0.89720       -1.22870
C          1.91520        0.43450        1.28460
H          1.40460       -0.98050       -0.32210
C          0.94490        0.28370       -2.54160
C          2.25350        4.70770       -2.58590
C          3.02310        3.88090       -1.86610
C          2.46640        3.06340       -0.73840
O          1.46260        2.25730       -1.22670
C          2.83150        5.49190       -3.72210
H          1.19590        4.80740       -2.35850
H          4.07860        3.78340       -2.10650
H          2.06150        3.73370        0.04870
H          3.30060        2.47380       -0.34540
Br         1.57950       -1.12740        2.38840
Br         3.79150        0.83420        1.57990
Br         0.77120        1.83990        1.97640
C          1.93260        0.63090       -3.65200
H         -0.05560        0.68570       -2.81070
H          0.86180       -0.82310       -2.47880
H          1.99860        1.73210       -3.78510
H          1.58970        0.18380       -4.60850
H          2.94020        0.23190       -3.40900
H          3.25490        4.79950       -4.48080
H          3.63300        6.16490       -3.35110
H          2.03760        6.10380       -4.20000
