26
TSA8_9_CBr3_Et_Me
C          2.57230        1.74620       -1.64520
C          1.01030        1.63600       -1.47140
C          3.32510        1.18020       -0.38680
H          2.88880        1.08080       -2.47650
C          0.35750        0.51890       -2.30690
C          2.88760        3.20360       -2.11510
C          2.21930        4.26470       -1.22490
C          0.81300        3.82080       -0.79570
O          0.31500        2.85790       -1.69530
C          4.35380        3.54680       -2.37530
H          2.37890        3.29200       -3.10280
H          2.80390        4.57880       -0.33510
H          0.14420        4.70560       -0.76900
H          0.80580        3.41570        0.24060
Br         2.70760       -0.61400        0.03780
Br         5.22990        0.95030       -0.69910
Br         3.12110        2.21720        1.24070
C          0.37830        0.81500       -3.80910
H         -0.70150        0.41860       -1.98600
H          0.86250       -0.44980       -2.11920
H         -0.16070        1.76090       -4.02700
H         -0.12700       -0.00970       -4.35420
H          1.41590        0.89670       -4.19100
H          4.80210        2.81010       -3.07500
H          4.92870        3.57650       -1.42860
H          4.42540        4.55360       -2.83960
