19
TSA8_9_CF3_I_NO2
C          1.52400       -0.60860        1.99310
C          1.06790        0.60570        1.20980
C          1.40740       -1.87020        1.10080
H          2.60780       -0.47140        2.20270
I          2.42920        2.15550        0.76090
C          0.80220       -0.64650        3.38340
C         -0.70860       -0.74000        3.28500
C         -1.50690        0.23440        3.73430
O         -0.08460        0.70380        0.81670
N          1.29570       -1.70970        4.24260
H          1.06470        0.32230        3.87030
H         -1.16450       -1.62110        2.84630
H         -1.09940        1.13450        4.18490
H         -2.58420        0.13520        3.65170
F          2.00120       -2.96360        1.69970
F          0.08820       -2.16780        0.81260
F          2.07380       -1.64820       -0.09280
O          1.03910       -2.85360        4.01380
O          1.92960       -1.40660        5.35520
