19
TSA8_9_CF3_I_NO2
C          1.90150        0.03450        0.06840
C          1.20980        0.58680        1.08040
C          2.14960       -1.44250       -0.11840
H          2.31690        0.69380       -0.68790
I          0.99950        2.70660        1.08300
C         -0.24240       -0.84000        5.28210
C         -0.53790       -0.82900        3.96990
C         -0.12400        0.30540        3.07660
O          0.66500       -0.18240        2.05820
N         -0.63210       -1.90660        6.14040
H          0.30990       -0.00830        5.71200
H         -1.09280       -1.64990        3.52490
H          0.43640        1.07660        3.65040
H         -1.03890        0.76850        2.64830
F          3.51270       -1.66930       -0.13720
F          1.58630       -2.21510        0.88140
F          1.61470       -1.83320       -1.33120
O         -1.23900       -2.84660        5.72080
O         -0.32250       -1.85570        7.41710
