20
TSA8_9_Br_Me_CBr3
C          1.96240        0.02180       -0.22520
C          1.50770        0.41680       -1.44260
Br         2.45980        1.10660        1.27960
H          2.05290       -1.04130       -0.02150
C          1.14030       -0.63630       -2.45140
C          3.94600        3.85860       -2.22580
C          3.32580        2.93120       -1.47840
C          1.82510        2.89060       -1.33920
O          1.33320        1.70840       -1.85400
C          5.44480        3.88200       -2.37580
H          3.35650        4.61060       -2.74300
H          3.91780        2.17910       -0.96740
H          1.37010        3.72350       -1.91740
H          1.50280        3.03580       -0.29180
H          1.76340       -0.50250       -3.36020
H          0.07150       -0.52280       -2.72880
H          1.29500       -1.66970       -2.07260
Br         5.97140        5.34880       -3.52810
Br         6.30120        4.12400       -0.65210
Br         6.07180        2.22860       -3.17510
