20
TSA8_9_OH_CBr3_NO2
C          3.05040        0.53770       -1.39550
C          1.54800        0.20370       -1.70470
O          3.13430        1.21010       -0.16570
H          3.67440       -0.38330       -1.34710
C          1.29810       -1.25890       -2.11890
C          3.59390        1.45450       -2.51610
C          2.73390        2.73020       -2.60470
C          1.26020        2.42250       -2.29410
O          0.96140        1.09200       -2.65630
N          4.99930        1.79690       -2.37620
H          3.47160        0.90180       -3.47210
H          3.06470        3.53190       -1.90770
H          0.60710        3.13280       -2.84130
H          1.04250        2.57990       -1.21050
H          2.87060        0.55600        0.53250
Br        -0.59700       -1.53640       -2.42240
Br         2.24660       -1.73440       -3.74530
Br         1.82930       -2.47140       -0.69880
O          5.64450        1.40500       -1.45010
O          5.58490        2.52340       -3.30390
