22
TSA8_9_Me_CH2F_NH2
C          2.80600        1.24360        0.03540
C          1.40020        1.46730       -0.48480
C          2.87560       -0.10830        0.76670
H          3.48560        1.18050       -0.84430
C          1.15810        1.56060       -1.96490
C          3.28440        2.45130        0.89230
C          2.51490        2.59840        2.19130
C          1.78100        3.68010        2.46660
O          0.46140        1.56530        0.29250
N          4.71710        2.34540        1.17660
H          3.14350        3.36150        0.26410
H          2.56670        1.80480        2.93060
H          1.70080        4.50150        1.76200
H          1.25060        3.74610        3.41140
H          2.19960       -0.12630        1.64710
H          3.90900       -0.33100        1.09940
H          2.56280       -0.92250        0.07820
F         -0.18380        1.76620       -2.23430
H          1.48300        0.61750       -2.45260
H          1.74350        2.40550       -2.38440
H          4.90860        1.56180        1.84050
H          5.04650        3.23270        1.62310
