22
TSA8_9_Me_CH2F_NH2
C          2.86150        1.41540        0.15230
C          1.37220        1.76580       -0.19480
C          2.91500        0.26450        1.17340
H          3.38590        1.03500       -0.75360
C          1.16320        1.82760       -1.70780
C          3.56070        2.70360        0.63210
C          2.82170        3.31280        1.83920
C          1.30350        3.09670        1.71720
O          0.92790        3.00560        0.36190
N          4.98530        2.51160        0.90570
H          3.46940        3.42870       -0.20840
H          3.14710        2.90100        2.81950
H          0.77570        3.94040        2.20720
H          0.96930        2.18440        2.25920
H          2.44220        0.52610        2.13950
H          3.96520       -0.03230        1.37180
H          2.39070       -0.62330        0.76000
F         -0.16730        2.07950       -1.98610
H          1.44340        0.85790       -2.17040
H          1.78640        2.63530       -2.14780
H          5.11850        1.91330        1.75200
H          5.42250        3.44230        1.09860
