23
TSA8_9_CH2F_NO2_OMe
C          2.73610        1.22400       -0.73660
C          1.23750        1.39380       -1.16000
C          2.79370        0.70830        0.70860
H          3.21570        0.44610       -1.37250
N          0.90470        0.52010       -2.26790
C          3.48400        2.55970       -0.96720
C          2.74790        3.77620       -0.33380
C          1.22850        3.55540       -0.36670
O          0.88440        2.74100       -1.46500
O          4.89170        2.45600       -0.76340
H          3.37200        2.74430       -2.05890
H          3.00580        4.03190        0.71330
H          0.70920        4.53370       -0.43030
H          0.87420        3.09030        0.58430
F          4.08960        0.37630        1.05900
H          2.18360       -0.21600        0.79370
H          2.39280        1.45640        1.42360
O          0.48520        0.96820       -3.29310
O          1.03660       -0.78250       -2.13780
C          5.34340        2.97620        0.46870
H          5.47240        4.07730        0.39880
H          6.33400        2.52870        0.68910
H          4.69250        2.70190        1.32440
