19
TSA8_9_OMe_OH_F
C          1.53190        0.14800       -0.07520
C          1.11670       -0.83830        0.73050
O          1.62000       -0.06180       -1.40950
H          1.78100        1.12060        0.34240
O          1.00100       -0.63310        2.06410
C         -1.18830       -4.68660       -0.50070
C         -1.05000       -3.45380       -0.00250
C          0.13530       -3.06230        0.83320
O          0.80380       -2.04230        0.18650
F         -2.27060       -4.99490       -1.26150
H         -0.44370       -5.45350       -0.31010
H         -1.81070       -2.70750       -0.21360
H          0.82910       -3.91940        0.96360
H         -0.22700       -2.75120        1.83670
C          1.94450        0.94060       -2.29380
H          1.94960        0.52810       -3.32370
H          2.95140        1.34790       -2.06170
H          1.18820        1.75320       -2.23960
H          1.21740        0.21290        2.48270
