26
TSA8_9_Et_H_Et
C          2.77020        1.89900       -0.42830
C          1.66420        2.15680       -1.42880
C          2.32670        0.77820        0.54490
H          3.63010        1.49460       -1.00160
H          1.84570        1.97140       -2.48240
C          3.23740        3.20610        0.29810
C          2.13460        3.79670        1.15760
C          2.24950        3.90650        2.48480
O          0.56250        2.54550       -1.07630
C          3.73600        4.30190       -0.67500
H          4.10090        2.94870        0.94780
H          1.22260        4.15410        0.69130
H          1.43970        4.33970        3.06330
H          3.14110        3.56990        3.00370
C          3.45150        0.29020        1.46050
H          1.99410       -0.09740       -0.05600
H          1.46660        1.11420        1.16360
H          4.30870       -0.07350        0.85420
H          3.07990       -0.54960        2.08430
H          3.79700        1.09070        2.14420
C          4.96000        3.88110       -1.49140
H          4.03230        5.19260       -0.07730
H          2.92210        4.61050       -1.36640
H          5.79160        3.58970       -0.81480
H          5.29600        4.73480       -2.11650
H          4.72440        3.03880       -2.17200
