22
TSA8_9_Et_I_NO2
C          2.34360        1.17710        0.90800
C          1.14820        1.63120        0.09780
C          2.33870       -0.38040        0.92100
H          3.24280        1.52910        0.35680
I          1.43030        2.71620       -1.69200
C          2.32040        1.89240        2.30610
C          1.24750        1.31550        3.20720
C          0.20260        2.03930        3.62070
O          0.00960        1.37640        0.45990
N          3.59840        1.87970        3.00590
H          2.10080        2.96800        2.11240
H          1.32870        0.28400        3.53540
H          0.07960        3.07470        3.31890
H         -0.54430        1.59060        4.26740
C          3.53750       -1.04300        1.59150
H          2.32500       -0.73170       -0.13480
H          1.41270       -0.75830        1.40580
H          4.47950       -0.72580        1.09650
H          3.44730       -2.14540        1.49280
H          3.56710       -0.80710        2.67420
O          4.58770        1.45230        2.49190
O          3.70150        2.49810        4.16330
