22
TSA8_9_Me_NH2_CBr3
C          2.84180       -0.49990       -1.30520
C          1.51800       -1.15430       -0.94140
C          2.90100        0.88820       -0.64590
H          3.64310       -1.11240       -0.84340
N          1.49320       -2.29230       -0.20700
C          3.05170       -0.52370       -2.86200
C          2.03520        0.35250       -3.57410
C          1.11390       -0.15160       -4.40120
O          0.46430       -0.65190       -1.30600
C          4.49120       -0.18830       -3.36540
H          2.89260       -1.58690       -3.15740
H          2.05360        1.42610       -3.41510
H          1.05480       -1.21740       -4.59520
H          0.40800        0.51100       -4.89210
H          2.12110        1.56530       -1.05240
H          3.89460        1.35280       -0.76270
H          2.73100        0.78800        0.44800
H          0.59500       -2.73320        0.04070
H          2.36420       -2.73680        0.11620
Br         4.61350       -0.57030       -5.26930
Br         5.03410        1.66910       -3.15820
Br         5.82830       -1.31460       -2.51510
