22
TSA8_9_Me_NH2_CBr3
C          2.82970       -0.51750       -1.42330
C          1.41800       -1.16580       -1.20900
C          2.78850        0.94510       -0.95480
H          3.56090       -1.02490       -0.75690
N          1.53330       -2.39660       -0.43350
C          3.24760       -0.72690       -2.90840
C          2.16970       -0.14480       -3.85040
C          0.76010       -0.32700       -3.26710
O          0.72660       -1.45460       -2.42360
C          4.68780       -0.31810       -3.33210
H          3.21020       -1.83220       -3.04210
H          2.30240        0.93120       -4.09320
H          0.03420       -0.44480       -4.09730
H          0.42710        0.57530       -2.70600
H          2.11310        1.56850       -1.57320
H          3.80010        1.39060       -0.96270
H          2.43510        0.98740        0.09770
H          0.57450       -2.78970       -0.29840
H          1.89910       -2.15640        0.51600
Br         5.03430       -0.96460       -5.13280
Br         5.02080        1.59860       -3.36760
Br         6.01530       -1.15020       -2.18460
