21
TSA8_9_CHF2_NH2_NH2
C          1.43560       -2.07430       -0.18030
C          0.81520       -1.16910        0.87190
C          1.35270       -1.38950       -1.56440
H          2.51950       -2.17760        0.05060
N          1.56770       -0.66450        1.87820
C          0.83060       -3.51090       -0.09060
C         -0.66550       -3.56330       -0.34130
C         -1.52560       -3.96000        0.60250
O         -0.37270       -0.88540        0.81280
N          1.51780       -4.43480       -0.99670
H          1.03650       -3.85940        0.94790
H         -1.05740       -3.28120       -1.31260
H         -1.18240       -4.25620        1.58910
H         -2.58910       -3.98930        0.38960
F          2.04670       -2.10390       -2.52290
F          0.04520       -1.21320       -1.97830
H          1.82950       -0.38780       -1.49710
H          1.14340       -0.04950        2.58850
H          2.57120       -0.88450        1.95380
H          1.23300       -4.25690       -1.98640
H          1.22920       -5.41410       -0.76700
