24
TSA8_9_OH_Et_CHF2
C          2.06070        0.34590       -0.12710
C          1.43790        1.54550       -0.07640
O          2.45670       -0.31340        0.97890
H          2.23160       -0.13160       -1.08830
C          0.97260        2.18420       -1.36480
C          2.86680        4.56090        1.60500
C          3.11620        3.28030        1.91640
C          1.98350        2.33340        2.20450
O          1.16870        2.21080        1.08910
C          3.96570        5.53730        1.31320
H          1.83910        4.91530        1.56230
H          4.13960        2.91930        1.97610
H          1.38610        2.75910        3.03830
H          2.36360        1.35870        2.55620
H          2.87610       -1.18270        0.91150
C          1.67630        3.51780       -1.59400
H         -0.12510        2.34590       -1.31930
H          1.18550        1.53220       -2.24070
H          1.44240        4.22750       -0.77530
H          1.33180        3.96250       -2.55060
H          2.77640        3.36600       -1.64720
F          4.80240        5.65120        2.40770
F          4.69160        5.11650        0.21500
H          3.52400        6.53310        1.09230
