15
TSA8_9_Cl_CN_I
C          2.53910        1.49240       -0.42270
C          1.53380        1.28060       -1.54120
Cl         1.96690        0.50670        0.97180
H          3.50460        1.02670       -0.70460
C          1.72810        0.20190       -2.46980
C          2.74030        3.01210       -0.09670
C          1.85720        3.35990        1.05670
C          0.57800        3.65550        0.87260
O          0.48050        1.87790       -1.57210
I          4.72650        3.66610        0.41650
H          2.54240        3.65050       -0.98880
H          2.22470        3.17720        2.06630
H          0.18240        3.77470       -0.12720
H         -0.07680        3.73140        1.72820
N          1.88350       -0.66150       -3.21340
