26
TSA8_9_NO2_OMe_Et
C          3.03140       -0.54560        1.79450
C          1.67850        0.11760        1.53500
N          3.18710       -1.64330        0.85700
H          3.85880        0.16990        1.64330
O          1.51310        1.42050        1.16870
C          3.12620       -1.02240        3.27850
C          2.87210        0.16860        4.18340
C          1.83970        0.20950        5.03170
O          0.67020       -0.55310        1.69640
C          4.50230       -1.61040        3.68860
H          2.34640       -1.79630        3.46350
H          3.54860        1.01810        4.13950
H          1.69040        1.08060        5.66100
H          1.13910       -0.61640        5.10570
O          4.05510       -1.61080        0.03690
O          2.34960       -2.65920        0.87120
C          2.45740        2.36920        0.82280
H          2.20330        2.77570       -0.17750
H          3.48980        1.98910        0.76450
H          2.42250        3.19950        1.55790
C          4.86320       -2.95070        3.04830
H          4.47450       -1.79810        4.78570
H          5.31120       -0.87340        3.48910
H          4.07070       -3.70130        3.25270
H          5.81590       -3.31600        3.48700
H          5.02750       -2.86450        1.96110
