20
TSA8_9_H_CCl3_CF3
C          2.15750        1.69780        1.55650
C          1.16700        2.70310        1.01510
H          1.63840        0.71740        1.54570
H          3.03820        1.61790        0.88100
C          1.40200        3.41510       -0.30240
C          2.63040        2.00380        3.00450
C          3.50350        0.87200        3.51530
C          3.04170       -0.37550        3.65630
O          0.13520        2.90220        1.64030
C          3.39840        3.33940        3.11220
H          1.74260        2.06910        3.67270
H          4.53520        1.06810        3.79660
H          2.01650       -0.62950        3.40830
H          3.69470       -1.15600        4.03340
Cl         2.89920        4.37910       -0.25610
Cl         1.54120        2.21510       -1.61220
Cl         0.05300        4.51550       -0.70750
F          4.51530        3.32630        2.29420
F          2.58660        4.40140        2.75900
F          3.80660        3.53870        4.42010
