24
TSA8_9_OMe_CBr3_CBr3
C          1.16770        1.76090       -0.65700
C          1.77240        0.79650       -1.66590
O          2.22680        2.23040        0.16450
H          0.37980        1.23600       -0.06330
C          1.37050       -0.66140       -1.77260
C          0.47620        2.95840       -1.39950
C         -0.84590        2.46930       -1.96500
C         -1.11870        2.45300       -3.27310
O          2.65280        1.22320       -2.40340
C          0.22070        4.23190       -0.53570
H          1.14160        3.30270       -2.22430
H         -1.61170        2.12370       -1.27410
H         -0.39260        2.78790       -4.00350
H         -2.08680        2.09490       -3.61190
C          2.12630        1.72500        1.48130
H          2.83220        2.28130        2.12810
H          2.41480        0.65470        1.51560
H          1.11850        1.88240        1.92420
Br         1.65780       -1.58600       -0.09670
Br        -0.49200       -0.84900       -2.26400
Br         2.41980       -1.59130       -3.12630
Br        -0.71040        5.58800       -1.58170
Br        -0.84700        3.88230        1.05070
Br         1.87790        5.10110        0.00580
