24
TSA8_9_OMe_CF3_CBr3
C          2.62750        1.33110       -0.48860
C          1.32600        0.86530       -1.23810
O          2.29820        1.70440        0.83880
H          3.39090        0.52080       -0.48370
C          1.59310       -0.28480       -2.21810
C          3.19500        2.56120       -1.24020
C          2.13410        3.68870       -1.24760
C          0.70610        3.12040       -1.22240
O          0.64940        1.91060       -1.94310
C          4.58630        3.06010       -0.76440
H          3.32840        2.24320       -2.29640
H          2.21810        4.39110       -0.39120
H          0.00660        3.86140       -1.65900
H          0.35630        2.95080       -0.17750
C          2.16390        0.57010        1.67320
H          3.09110        0.43350        2.26680
H          1.92700       -0.37300        1.12860
H          1.31440        0.74490        2.36580
F          0.39800       -0.68980       -2.78230
F          2.45080        0.11650       -3.22600
F          2.14770       -1.36030       -1.54890
Br         5.18270        4.53360       -1.88260
Br         4.60650        3.67660        1.08190
Br         5.92230        1.65980       -0.93980
