20
TSA8_9_CH2F_CCl3_I
C          2.81340       -1.31400       -0.32290
C          1.36910       -1.61640        0.16240
C          2.76250       -0.04050       -1.18950
H          3.47560       -1.02740        0.52070
C          1.16280       -2.22640        1.56860
C          3.43500       -2.50780       -1.09950
C          2.38310       -3.50230       -1.59840
C          1.08090       -2.78300       -1.93700
O          0.46980       -2.14310       -0.81940
I          4.92140       -3.55540        0.04100
H          4.00340       -2.11990       -1.97160
H          2.14090       -4.25360       -0.82460
H          0.37400       -3.55020       -2.31560
H          1.23550       -2.05960       -2.76190
F          4.03870        0.33070       -1.57640
H          2.33120        0.79380       -0.59470
H          2.13870       -0.16670       -2.09500
Cl         1.76610       -3.88960        1.74720
Cl         1.95470       -1.20850        2.79980
Cl        -0.57870       -2.24010        1.94980
