21
TSA8_9_H_Me_OMe
C          1.86230        0.13350       -0.09220
C          1.47720        1.40000       -0.34460
H          2.12060       -0.20180        0.90440
H          1.91920       -0.60010       -0.89060
C          1.11420        1.80920       -1.74310
C          4.06650        3.16400        2.59080
C          3.33830        2.21250        1.97650
C          1.83140        2.26760        1.93660
O          1.38640        2.35290        0.62900
O          5.42750        3.15400        2.63590
H          3.55780        3.99050        3.07710
H          3.83030        1.38020        1.48680
H          1.46680        3.16540        2.48010
H          1.39330        1.37930        2.43920
H          1.78350        2.63360       -2.06640
H          0.06440        2.16840       -1.76090
H          1.21350        0.97190       -2.46650
C          6.24990        2.20910        2.05620
H          7.30750        2.47460        2.25950
H          6.09530        2.19020        0.95610
H          6.04670        1.20570        2.48720
