21
TSA8_9_H_Me_OMe
C          3.27840        1.29810        0.33070
C          1.73910        1.33230        0.07710
H          3.50450        0.42170        0.97470
H          3.83660        1.16530       -0.62140
C          1.41810        1.98830       -1.26550
C          3.68790        2.58560        1.07490
C          2.90800        2.71970        2.39940
C          1.60240        1.90550        2.35650
O          0.98910        2.01110        1.08960
O          5.08490        2.79020        1.25080
H          3.34110        3.41560        0.42370
H          3.47580        2.37770        3.28990
H          0.91420        2.27640        3.14370
H          1.79310        0.83270        2.59100
H          1.74130        3.05020       -1.27830
H          0.32320        1.94650       -1.44470
H          1.92420        1.44110       -2.08840
C          5.75800        1.63840        1.71700
H          6.74330        1.95100        2.11930
H          5.94890        0.93430        0.87930
H          5.22570        1.13340        2.55140
