17
TSA8_9_F_NH2_OH
C          3.09860        0.93520       -1.18010
C          1.64370        1.03750       -1.57940
F          3.19530        0.19110       -0.01580
H          3.63500        0.37860       -1.97970
N          1.22840        0.58800       -2.78770
C          3.85460        2.27670       -1.01500
C          3.35270        3.16580        0.10450
C          2.20690        3.85030        0.04220
O          0.82330        1.48910       -0.79580
O          5.19900        1.96140       -0.75330
H          3.79870        2.83460       -1.98040
H          3.97620        3.29750        0.98490
H          1.56520        3.80480       -0.82990
H          1.91440        4.49010        0.86840
H          0.23310        0.64290       -3.05110
H          1.89410        0.18660       -3.46380
H          5.74400        2.73780       -1.04820
