20
TSA8_9_OH_NO2_CCl3
C          3.08330        1.52610       -0.74210
C          1.66220        1.46050       -1.28330
O          3.28350        0.43640        0.12500
H          3.73810        1.44140       -1.64070
N          1.23950        0.37050       -1.98220
C          3.42130        2.86740       -0.01670
C          2.57080        3.02200        1.23290
C          1.70480        4.02920        1.38450
O          0.89340        2.39640       -1.10490
C          4.93030        3.01870        0.34230
H          3.19220        3.69020       -0.73230
H          2.66820        2.29540        2.03430
H          1.57500        4.78040        0.61180
H          1.11690        4.10550        2.29320
H          4.06080       -0.07930       -0.21510
O          0.12590        0.32480       -2.41180
O          2.05260       -0.64160       -2.20090
Cl         5.22870        4.63180        1.05140
Cl         5.50570        1.80170        1.52020
Cl         5.95330        2.90740       -1.11790
