20
TSA8_9_OH_NO2_CCl3
C          3.13530        1.40370       -0.26220
C          1.65580        1.36720       -0.77760
O          3.20230        0.86640        1.03310
H          3.78790        0.79540       -0.92890
N          1.63310        1.13500       -2.20990
C          3.60240        2.87660       -0.25130
C          2.68470        3.69610        0.68850
C          1.27160        3.09520        0.76640
O          0.89890        2.54700       -0.47630
C          5.10950        3.09440        0.05750
H          3.43020        3.25690       -1.28380
H          3.05990        3.76820        1.73190
H          0.55430        3.88640        1.06740
H          1.20750        2.31010        1.55390
H          3.06370       -0.11250        0.94240
O          1.11470        1.91730       -2.94850
O          2.12380        0.01570       -2.69700
Cl         5.51190        4.83100       -0.05180
Cl         5.57590        2.52410        1.68650
Cl         6.12690        2.24570       -1.13900
