20
TSA8_9_OH_CBr3_NH2
C          2.77040        0.04370       -2.22420
C          1.25350        0.11700       -1.82510
O          3.54170        0.69780       -1.25020
H          3.12510       -1.00770       -2.31590
C          0.50600       -1.22690       -1.92960
C          2.95910        0.75040       -3.57800
C          2.46410        2.21020       -3.49790
C          1.28100        2.32850       -2.52380
O          0.53460        1.13130       -2.52910
N          4.34300        0.67760       -4.04580
H          2.31670        0.22140       -4.31380
H          3.24430        2.92780       -3.16240
H          0.64240        3.18870       -2.81120
H          1.64030        2.54820       -1.48980
H          3.50410        0.13400       -0.43410
Br         1.30370       -2.54890       -0.75280
Br        -1.33220       -0.99550       -1.35660
Br         0.48670       -1.92450       -3.74180
H          4.97190        1.20220       -3.39630
H          4.40780        1.11450       -4.99420
