24
TSA8_9_Me_OMe_CHF2
C          3.14900       -0.00580        1.75540
C          2.25600        1.17280        2.07900
C          2.44600       -0.93460        0.75450
H          4.05600        0.38750        1.24470
O          2.68130        2.42530        1.77270
C          3.63310       -0.79040        3.01460
C          2.49120       -1.42380        3.78560
C          2.37880       -2.74870        3.92310
O          1.16280        0.99840        2.60030
C          4.46880        0.08660        3.96730
H          4.31360       -1.59280        2.64810
H          1.74030       -0.79280        4.24990
H          1.54950       -3.16610        4.48490
H          3.10400       -3.42480        3.48130
H          1.51880       -1.36520        1.18960
H          3.12240       -1.76650        0.46390
H          2.17610       -0.37080       -0.16430
C          1.96270        3.56780        2.05210
H          2.53130        4.45150        1.69710
H          1.80550        3.66020        3.14850
H          0.98080        3.54020        1.53300
F          5.55720        0.62060        3.30010
F          3.71440        1.11620        4.50330
H          4.84930       -0.53730        4.80440
