15
TSA8_9_OH_Cl_F
C          1.67110       -1.97880        0.15660
C          1.23680       -0.84000        1.05030
O          1.44270       -1.65690       -1.19280
H          2.77080       -2.07950        0.28560
Cl         2.40940       -0.03530        2.08200
C          1.09400       -3.37640        0.50590
C         -0.40430       -3.52300        0.37090
C         -1.27160       -2.97010        1.22360
O          0.09080       -0.42220        1.02390
F          1.68560       -4.29090       -0.34960
H          1.38580       -3.65910        1.54080
H         -0.79640       -4.14350       -0.43000
H         -0.93740       -2.38120        2.06960
H         -2.33700       -3.12720        1.08930
H          0.46180       -1.58220       -1.32400
