15
TSA8_9_OH_Cl_F
C          1.55120       -1.98100        0.06920
C          0.90650       -1.02160        1.08150
O          1.06050       -1.66990       -1.20970
H          2.65550       -1.83450        0.08630
Cl         1.67830       -1.04690        2.70080
C          1.18350       -3.42310        0.44860
C         -0.33650       -3.54360        0.54830
C         -0.85440       -2.49640        1.54310
O         -0.50490       -1.17780        1.14690
F          1.67370       -4.31580       -0.48800
H          1.62810       -3.67390        1.43630
H         -0.79970       -3.36790       -0.44700
H         -0.49430       -2.71370        2.57230
H         -1.96120       -2.57120        1.57620
H          1.66850       -2.10320       -1.86410
