18
TSA8_9_CN_F_CH2F
C          1.74410        0.01660       -0.10940
C          1.44580        0.74760       -1.20650
C          1.85020        0.50390        1.24080
H          1.80430       -1.05070       -0.21960
F          1.35260        0.06410       -2.37360
C          3.75650        3.24210        0.72930
C          3.05000        3.26270       -0.40380
C          1.56230        3.10270       -0.40450
O          1.22120        2.09290       -1.27550
C          5.24350        3.39590        0.73150
H          3.25010        3.12220        1.68080
H          3.54460        3.40190       -1.36270
H          1.13060        4.04690       -0.79840
H          1.12480        2.94360        0.60370
N          1.94150        0.85990        2.34010
F          5.81270        2.29190        1.33770
H          5.49780        4.30680        1.30970
H          5.65360        3.49580       -0.29780
