20
TSA8_9_CN_CBr3_NO2
C          1.65660       -0.09710        0.01530
C          1.62110       -1.41960       -0.32140
C          1.77480        1.02450       -0.88740
H          1.56720        0.20820        1.04470
C          1.50030       -2.48840        0.75550
C          2.69380       -1.49210       -4.58880
C          2.15020       -0.74570       -3.61720
C          1.08250       -1.28350       -2.71420
O          1.66140       -1.87190       -1.60930
N          3.72720       -0.99510       -5.43170
H          2.34180       -2.50900       -4.73650
H          2.49310        0.26920       -3.45780
H          0.45570       -2.03530       -3.24250
H          0.38110       -0.47980       -2.42270
N          1.86790        1.95140       -1.57660
Br         2.02250       -1.92150        2.54600
Br        -0.33700       -3.10020        0.81450
Br         2.60180       -4.02570        0.32880
O          4.18300        0.09780       -5.27180
O          4.21090       -1.76390       -6.38200
