20
TSA8_9_CN_CBr3_NO2
C          2.74490       -0.70260       -1.58520
C          1.49710       -1.44730       -0.94420
C          2.39810        0.73800       -1.56030
H          3.66850       -0.86060       -0.98120
C          1.64730       -2.30450        0.33640
C          2.85890       -1.23840       -3.05690
C          1.54060       -0.93610       -3.77860
C          0.34700       -1.36370       -2.92830
O          0.77200       -2.21490       -1.89570
N          3.93930       -0.80050       -3.91480
H          2.98330       -2.33620       -2.95820
H          1.44410        0.15290       -4.01440
H         -0.34020       -1.91530       -3.59420
H         -0.20640       -0.49010       -2.51070
N          2.12230        1.86300       -1.49660
Br         2.26090       -1.30470        1.87590
Br        -0.11540       -3.00020        0.80120
Br         2.81130       -3.83140        0.05660
O          4.74760        0.00120       -3.55770
O          4.02460       -1.31810       -5.12250
