24
TSA8_9_OMe_CH2F_Me
C          1.28520        0.08600        1.59740
C          1.69950        1.28000        0.76660
O          2.40970       -0.77260        1.72460
H          0.41380       -0.40850        1.09640
C          0.99910        1.60170       -0.52030
C          0.81170        0.52340        3.00480
C         -0.40040        1.42270        2.89570
C         -0.39560        2.68030        3.34620
O          2.62410        1.98730        1.14100
C          0.44670       -0.69190        3.86680
H          1.64650        1.05780        3.51280
H         -1.30450        1.03390        2.43470
H          0.48680        3.10790        3.81160
H         -1.28590        3.29300        3.24800
C          2.19120       -1.99250        1.05090
H          1.36940       -2.56800        1.53200
H          3.11230       -2.60570        1.12500
H          1.99250       -1.82550       -0.03130
F         -0.33910        1.84900       -0.27790
H          1.09440        0.74520       -1.21970
H          1.44900        2.50020       -0.99460
H         -0.37480       -1.27570        3.39820
H          0.12030       -0.35840        4.87520
H          1.32760       -1.35560        3.99710
