24
TSA8_9_OMe_CH2F_Me
C          1.46650        0.04300       -0.06030
C          1.36980        1.31160        0.35850
O          1.48940       -0.96360        0.84510
H          1.50930       -0.18280       -1.12460
C          1.32440        2.45650       -0.61910
C          0.80580        0.62790        4.40120
C         -0.08340        0.82090        3.41710
C          0.14540        1.85850        2.35800
O          1.31590        1.56240        1.68830
C          0.58700       -0.42060        5.44670
H          1.70670        1.23410        4.44690
H         -0.98430        0.21410        3.37230
H          0.22760        2.86280        2.82440
H         -0.72610        1.86070        1.66520
C          1.50580       -2.28810        0.47830
H          1.51940       -2.91660        1.39280
H          2.41120       -2.50760       -0.12560
H          0.59320       -2.53110       -0.10780
F          0.14670        3.16380       -0.46650
H          1.39070        2.10220       -1.67020
H          2.18210        3.13360       -0.42510
H          0.52740       -1.42160        4.96930
H         -0.35470       -0.21750        5.99840
H          1.43420       -0.41570        6.16420
