24
TSA8_9_Me_OMe_Me
C          1.92880        0.03870        0.01780
C          1.83660       -1.28480       -0.27450
C          1.83430        1.25410       -0.86440
H          2.09300        0.28640        1.06400
O          1.96050       -2.12910        0.78110
C          4.15100       -1.79460       -2.97610
C          3.13820       -0.92220       -3.08570
C          1.72740       -1.35230       -2.79030
O          1.63720       -1.85120       -1.50740
C          5.56360       -1.38850       -3.25750
H          3.95450       -2.81970       -2.67440
H          3.33140        0.10280       -3.38810
H          1.46570       -2.17020       -3.49410
H          0.97560       -0.56100       -2.96650
H          1.66540        1.07960       -1.92810
H          2.77760        1.83180       -0.77290
H          1.00060        1.88930       -0.50080
C          1.99690       -3.50200        0.66000
H          2.11020       -3.95420        1.66620
H          2.86500       -3.80450        0.03440
H          1.05690       -3.87380        0.20050
H          5.86700       -0.57440       -2.56660
H          5.65630       -1.03940       -4.30710
H          6.23740       -2.25800       -3.10580
