19
TSA8_9_Cl_CHF2_NO2
C          2.07640        2.04520       -0.32210
C          0.89550        2.18820       -1.25300
Cl         1.67320        0.81410        0.91300
H          2.95820        1.67580       -0.89100
C          1.03140        1.86730       -2.71490
C          2.42870        3.39640        0.34340
C          3.59530        3.23810        1.29360
C          3.48640        3.50390        2.59940
O         -0.18290        2.55880       -0.81110
N          2.76490        4.38860       -0.66190
H          1.53470        3.74600        0.91000
H          4.55120        2.89820        0.90510
H          2.54930        3.84550        3.02830
H          4.34440        3.37900        3.25160
F         -0.17550        2.04710       -3.36840
F          1.98040        2.69160       -3.28950
H          1.34720        0.80970       -2.83230
O          3.69720        4.22520       -1.39170
O          2.04230        5.48280       -0.77140
