19
TSA8_9_Cl_CHF2_NO2
C          1.90690        0.18420       -0.13940
C          1.47100        1.43550       -0.39270
Cl         2.17390       -0.44290        1.48360
H          2.07560       -0.50960       -0.95720
C          1.19670        1.86130       -1.81080
C          2.57970        4.90490        0.07480
C          3.08510        3.81500        0.67920
C          2.19370        2.87190        1.43850
O          1.22910        2.33000        0.60440
N          3.39230        5.82080       -0.64980
H          1.51130        5.09700        0.13900
H          4.14930        3.60190        0.63480
H          1.68930        3.44200        2.24680
H          2.80590        2.08190        1.91410
F         -0.12600        2.24360       -1.92940
F          2.00760        2.92960       -2.14140
H          1.39320        1.04110       -2.53430
O          4.57050        5.65320       -0.75280
O          2.83620        6.86890       -1.21880
