20
TSA8_9_F_H_Et
C          2.10540        0.32800        0.14500
C          1.29250        0.94250        1.02060
F          2.98270       -0.64570        0.50190
H          2.05380        0.60570       -0.90250
H          0.61260        1.69260        0.63110
C          3.94990        1.07880        4.39630
C          3.45220        0.66090        3.22130
C          2.12300       -0.04630        3.12930
O          1.24030        0.68880        2.36060
C          5.26380        1.80690        4.49450
H          3.39170        0.90800        5.31300
H          4.01080        0.84380        2.30880
H          1.68080       -0.15460        4.14300
H          2.24130       -1.07130        2.72210
C          6.43530        0.94600        4.02650
H          5.43690        2.08800        5.55550
H          5.21720        2.73740        3.88850
H          6.50140        0.02240        4.63990
H          7.38070        1.51750        4.13930
H          6.32050        0.66830        2.95790
