22
TSA8_9_CCl3_CHF2_NO2
C          1.31060       -1.22450        1.44320
C          2.65130       -1.41060        2.17010
C          1.36100       -1.30520       -0.13130
H          1.03250       -0.15790        1.60430
C          3.90070       -2.00570        1.56520
C          0.22850       -2.08980        2.20600
C         -1.10370       -2.19580        1.50100
C         -2.23090       -1.68270        1.99780
O          2.70930       -1.08280        3.34670
N          0.70050       -3.43050        2.51780
H          0.07620       -1.56890        3.17970
H         -1.15120       -2.72960        0.55610
H         -2.24130       -1.14710        2.94100
H         -3.15990       -1.80080        1.44880
Cl         1.60000       -2.93960       -0.80690
Cl        -0.12790       -0.63780       -0.86720
Cl         2.64330       -0.23110       -0.77000
F          4.93020       -1.08560        1.63410
F          4.25710       -3.13520        2.27880
H          3.78160       -2.30700        0.51360
O          0.92720       -4.22480        1.65720
O          0.85070       -3.79020        3.77680
