22
TSA8_9_CCl3_CHF2_NO2
C          1.43400       -0.38970        0.05230
C          2.02800       -1.27600        0.90190
C          2.01970        0.21560       -1.21180
H          0.42760       -0.06700        0.28530
C          3.43870       -1.78860        0.71860
C         -0.89210       -3.48530        3.85180
C         -0.28250       -3.27320        2.67220
C         -0.00460       -1.88890        2.16230
O          1.36220       -1.75290        1.99410
N         -1.14910       -4.79430        4.34740
H         -1.20100       -2.63510        4.45390
H          0.03020       -4.11250        2.05760
H         -0.36010       -1.11940        2.88070
H         -0.55620       -1.77190        1.20680
Cl         2.42950       -1.04420       -2.40410
Cl         0.80210        1.27660       -1.97010
Cl         3.44520        1.23250       -0.88440
F          4.35770       -0.76680        0.83860
F          3.72710       -2.73220        1.68930
H          3.54770       -2.28340       -0.26580
O         -0.81650       -5.76420        3.73420
O         -1.75030       -4.94010        5.50840
