23
TSA8_9_NH2_CBr3_OMe
C          2.69520       -0.83410       -1.02200
C          1.45840       -1.57540       -0.42930
N          2.69760        0.58260       -0.65730
H          3.60420       -1.31300       -0.60680
C          1.34500       -1.56200        1.11590
C          2.66170       -0.97670       -2.56880
C          2.43540       -2.43710       -3.00130
C          1.21730       -2.97360       -2.24670
O          1.46690       -2.92600       -0.85890
O          3.76300       -0.34390       -3.21060
H          1.75470       -0.43580       -2.92020
H          3.30600       -3.07810       -2.74730
H          1.05160       -4.03070       -2.54130
H          0.28810       -2.41760       -2.51320
H          1.85320        1.05950       -1.05180
H          3.55640        1.04730       -1.03100
Br         1.14170        0.21350        1.87680
Br        -0.24230       -2.54780        1.63750
Br         2.87520       -2.42530        1.94800
C          4.98490       -1.04650       -3.07690
H          5.16200       -1.66590       -3.98080
H          5.05710       -1.68380       -2.17210
H          5.80440       -0.30460       -2.98800
