23
TSA8_9_NH2_OMe_CCl3
C          2.39390        2.09520        0.72480
C          1.12570        2.67260        0.10780
N          2.18900        0.66100        0.95550
H          3.25110        2.19330        0.02860
O          1.08800        3.25090       -1.12280
C          2.78820        2.79890        2.06490
C          3.94210        2.03240        2.69040
C          3.83170        1.43300        3.88060
O          0.08420        2.60480        0.74280
C          3.19530        4.30200        1.92210
H          1.91190        2.74920        2.75070
H          4.88660        1.96320        2.15840
H          2.90730        1.47460        4.44850
H          4.67630        0.89350        4.29630
H          1.97590        0.18160        0.05080
H          1.39760        0.50350        1.62080
C          2.16790        3.47200       -1.94930
H          1.81270        3.94840       -2.88570
H          2.66440        2.51330       -2.20790
H          2.88680        4.16080       -1.46070
Cl         3.64690        4.96870        3.51840
Cl         4.59740        4.52020        0.83250
Cl         1.86520        5.33480        1.33040
