18
TSA8_9_OMe_H_Cl
C          0.51430       -0.92820        0.86480
C          1.51560        0.19750        0.99050
O          1.14790       -2.09480        0.36510
H         -0.32190       -0.60810        0.19810
H          1.35500        1.12290        0.44870
C         -0.10520       -1.25470        2.23750
C         -0.82460       -0.05850        2.81080
C         -0.46660        0.49140        3.97510
O          2.50770        0.07260        1.69090
Cl        -1.28190       -2.58820        2.07770
H          0.70050       -1.59590        2.92580
H         -1.65700        0.37020        2.25960
H          0.36140        0.09390        4.55400
H         -1.00570        1.35250        4.35620
C          1.40400       -1.97250       -1.01890
H          1.74370       -2.95800       -1.39780
H          2.22340       -1.24550       -1.20720
H          0.48850       -1.71170       -1.59490
