18
TSA8_9_OMe_H_Cl
C          1.34660       -0.01260       -0.18790
C          0.93090        0.46890        0.98460
O          1.53100       -1.34380       -0.34910
H          1.52010        0.67230       -1.01460
H          0.77000        1.53850        1.09310
C         -1.20470       -1.63290        4.51260
C         -1.09220       -0.83280        3.44700
C          0.12800        0.00920        3.21200
O          0.70340       -0.37490        2.01920
Cl        -2.64480       -2.61190        4.73900
H         -0.41110       -1.69540        5.25100
H         -1.89950       -0.79050        2.72110
H          0.87120       -0.12720        4.02660
H         -0.17440        1.08010        3.19640
C          1.88460       -1.89680       -1.55790
H          1.97210       -2.99660       -1.44130
H          2.86000       -1.48920       -1.89530
H          1.10230       -1.67970       -2.31700
