19
TSA8_9_NH2_H_CCl3
C          2.30790        1.78160        1.37030
C          1.09570        2.48530        0.81360
N          2.10560        0.33240        1.27110
H          3.18430        2.04380        0.73770
H          1.19580        3.13280       -0.05110
C          2.62150        2.18300        2.84720
C          3.75810        1.30890        3.34790
C          3.60100        0.45880        4.36880
O         -0.00410        2.32980        1.32220
C          3.00420        3.68590        3.05020
H          1.71420        1.97840        3.45980
H          4.72940        1.36770        2.86480
H          2.64830        0.36420        4.88080
H          4.43420       -0.15280        4.69950
H          1.95240        0.06200        0.27200
H          1.27760        0.03660        1.83650
Cl         3.38000        3.99620        4.77070
Cl         4.43890        4.15030        2.08740
Cl         1.67860        4.80840        2.63820
