19
TSA8_9_NH2_H_CCl3
C          1.83880        0.24220        0.09570
C          1.45150        1.28420        0.84820
N          2.01760       -1.05970        0.63120
H          2.00480        0.39750       -0.96600
H          1.30040        2.24830        0.37300
C          3.04940        3.17990        4.27370
C          2.98730        2.43090        3.16000
C          2.23780        1.12440        3.12160
O          1.22530        1.17250        2.18080
C          3.79800        4.48720        4.31410
H          2.54740        2.83740        5.17470
H          3.48940        2.76490        2.25590
H          1.78210        0.90660        4.11160
H          2.94940        0.30500        2.88870
H          2.31120       -1.82710        0.01030
H          1.82660       -1.27250        1.61990
Cl         3.68020        5.20290        5.94180
Cl         5.52190        4.23140        3.93630
Cl         3.10300        5.63770        3.14230
