19
TSA8_9_NH2_H_CCl3
C          2.40790        1.92050        1.38140
C          1.24800        0.91850        1.52440
N          3.57540        1.25810        0.79040
H          2.08860        2.73110        0.69100
H          0.29260        1.41570        1.80990
C          2.70260        2.52380        2.78420
C          2.92660        1.38380        3.79430
C          1.73790        0.41370        3.73430
O          1.57640       -0.12100        2.43100
C          3.83900        3.58280        2.82510
H          1.77470        3.05250        3.10240
H          3.86650        0.83400        3.57790
H          0.80160        0.90910        4.07820
H          1.93160       -0.42130        4.43900
H          3.33230        0.93250       -0.17340
H          3.86350        0.42180        1.34620
Cl         3.95580        4.27740        4.46640
Cl         5.44640        2.92070        2.40870
Cl         3.48330        4.93140        1.71050
