22
TSA8_9_CH2F_NH2_Me
C          2.96230       -1.31670        0.49960
C          1.66370       -0.92030        1.18220
C          3.00790       -0.67000       -0.90100
H          3.80140       -0.88550        1.08980
N          1.68000       -0.18350        2.31820
C          3.13280       -2.86990        0.52180
C          2.09430       -3.58220       -0.32020
C          1.20670       -4.42790        0.21180
O          0.59150       -1.26120        0.70430
C          4.53030       -3.32260        0.07750
H          3.03610       -3.18400        1.58680
H          2.07010       -3.40970       -1.39200
H          1.19390       -4.63440        1.27720
H          0.48080       -4.92160       -0.42620
F          4.22860       -0.86860       -1.51600
H          2.86400        0.42740       -0.80170
H          2.19810       -1.05930       -1.55260
H          0.79800        0.08640        2.77870
H          2.56830        0.12020        2.74240
H          5.30890       -2.82750        0.69620
H          4.71860       -3.10530       -0.99220
H          4.62900       -4.42090        0.21640
