22
TSA8_9_CH2F_NH2_Me
C          2.88620       -1.43920        0.52700
C          1.50340       -1.24670        1.24150
C          2.77990       -0.99190       -0.94620
H          3.63840       -0.76330        0.99330
N          1.68430       -0.52720        2.49840
C          3.32740       -2.90820        0.72990
C          2.26240       -3.87090        0.17310
C          0.84580       -3.31210        0.38910
O          0.81870       -2.47040        1.51890
C          4.72400       -3.25040        0.20260
H          3.36010       -3.06130        1.83250
H          2.38040       -4.09640       -0.90940
H          0.13760       -4.15540        0.51940
H          0.47870       -2.75460       -0.50160
F          4.01700       -1.00750       -1.56200
H          2.40720        0.05440       -0.98120
H          2.08230       -1.61950       -1.53300
H          0.74770       -0.40610        2.94600
H          2.04520        0.43010        2.28570
H          5.47760       -2.56860        0.65120
H          4.77220       -3.17720       -0.90230
H          4.98400       -4.29300        0.48530
