21
TSA8_9_Br_OMe_CBr3
C          1.87530        0.08120       -0.09780
C          1.84160       -1.12820        0.50560
Br         1.62900        0.50520       -1.95280
H          2.04450        0.95250        0.52790
O          2.02390       -1.13910        1.85000
C          4.04190       -3.74250       -2.03510
C          3.34180       -2.64090       -1.71740
C          1.86350       -2.69930       -1.43280
O          1.63650       -2.32680       -0.12430
C          5.52840       -3.69830       -2.27310
H          3.53060       -4.69780       -2.10950
H          3.84730       -1.68380       -1.63690
H          1.49310       -3.73920       -1.55500
H          1.28000       -2.08900       -2.14300
C          2.16190       -2.29670        2.58680
H          2.29800       -2.03420        3.65580
H          3.05640       -2.85790        2.24210
H          1.25720       -2.93300        2.48210
Br         6.17900       -5.47200       -2.70610
Br         5.95740       -2.51290       -3.74710
Br         6.44530       -3.09230       -0.67410
