23
TSA8_9_CCl3_CH2F_CBr3
C          1.40100       -0.52430       -0.11380
C          1.99900       -1.57260        0.51870
C          2.04950        0.47950       -1.05090
H          0.33820       -0.38250        0.03780
C          3.46980       -1.88950        0.39580
C         -1.19560       -3.61880        3.36910
C         -0.44510       -3.69240        2.26020
C         -0.09190       -2.48920        1.43890
O          1.28160       -2.43820        1.29480
C         -1.53670       -4.84910        4.16940
H         -1.57430       -2.65430        3.69650
H         -0.08350       -4.65860        1.91910
H         -0.47270       -1.55100        1.90040
H         -0.55570       -2.62000        0.43770
Cl         2.73210       -0.33010       -2.48450
Cl         0.81100        1.62120       -1.63760
Cl         3.30540        1.45570       -0.25070
F          4.24490       -0.89370        0.95260
H          3.75540       -2.05640       -0.65800
H          3.69230       -2.82570        0.94830
Br        -2.69660       -4.38110        5.65120
Br        -2.46880       -6.15060        3.06650
Br         0.07140       -5.65810        4.88560
