20
TSA8_9_I_CHF2_CBr3
C          3.19280       -1.36210       -1.08030
C          1.70910       -1.45130       -0.79710
I          3.88310        0.50710       -0.25510
H          3.68240       -2.16390       -0.49090
C          1.17880       -2.52630        0.11130
C          3.48730       -1.60640       -2.59660
C          2.95640       -0.46300       -3.44130
C          1.98020       -0.63410       -4.33890
O          0.93790       -0.64500       -1.29560
C          4.97970       -1.89680       -2.94800
H          2.94900       -2.54590       -2.86160
H          3.38020        0.52910       -3.32030
H          1.52560       -1.60680       -4.49730
H          1.63000        0.20950       -4.92480
F         -0.19510       -2.42410        0.24380
F          1.49090       -3.76940       -0.40730
H          1.64390       -2.42270        1.11440
Br         5.12410       -2.39000       -4.82440
Br         6.20260       -0.41030       -2.67770
Br         5.65800       -3.42070       -1.94870
