20
TSA8_9_I_CHF2_CBr3
C          2.00080       -0.29980       -0.08760
C          1.47630       -1.41140       -0.66710
I          2.70830        1.51130       -0.94700
H          2.07720       -0.26670        0.99500
C          1.01960       -2.53960        0.21920
C          3.96110       -1.93790       -4.10640
C          3.37360       -1.26470       -3.10420
C          1.89250       -0.98640       -3.09010
O          1.30850       -1.61400       -2.00840
C          5.43740       -2.23580       -4.10270
H          3.35890       -2.28750       -4.94110
H          3.97570       -0.92180       -2.26900
H          1.42150       -1.39550       -4.00920
H          1.67260        0.09560       -3.09250
F         -0.32610       -2.77550        0.00860
F          1.73230       -3.68150       -0.09770
H          1.17200       -2.32170        1.29780
Br         5.91610       -3.22760       -5.69740
Br         6.46810       -0.59260       -4.07410
Br         5.90620       -3.31200       -2.55720
