20
TSA8_9_I_CHF2_CBr3
C          3.19620       -1.24890       -1.30180
C          1.64880       -1.40320       -1.12240
I          3.67120        0.82670       -0.96860
H          3.72270       -1.78040       -0.48140
C          1.29200       -2.57030       -0.19840
C          3.59470       -1.82950       -2.68470
C          2.81940       -1.09450       -3.79930
C          1.42560       -0.65970       -3.31830
O          0.93820       -1.56300       -2.35220
C          5.11110       -1.97480       -3.00110
H          3.20500       -2.87160       -2.66930
H          3.33490       -0.19360       -4.19430
H          0.73590       -0.61240       -4.18590
H          1.44690        0.37000       -2.89480
F         -0.07630       -2.60420       -0.00260
F          1.70200       -3.77150       -0.74890
H          1.78350       -2.43370        0.78800
Br         5.33290       -2.95850       -4.66290
Br         6.07510       -0.30100       -3.21850
Br         6.01030       -3.00990       -1.62530
