22
TSA8_9_CCl3_NH2_CF3
C          1.51910       -1.55940        1.56210
C          2.87650       -1.51050        2.28890
C          1.59430       -1.66750       -0.01030
H          1.09250       -0.54900        1.74290
N          4.07580       -1.72610        1.69020
C          0.56320       -2.56800        2.32790
C         -0.90430       -2.39730        1.97940
C         -1.55680       -1.24670        2.18050
O          2.87220       -1.24720        3.48360
C          0.94710       -4.06520        2.24090
H          0.63140       -2.31030        3.40890
H         -1.46340       -3.23450        1.56940
H         -1.05840       -0.38030        2.60220
H         -2.60870       -1.16990        1.92550
Cl         2.35660       -3.15570       -0.64610
Cl        -0.01130       -1.54340       -0.77870
Cl         2.51390       -0.27700       -0.66050
H          4.94190       -1.67120        2.24700
H          4.18050       -1.94110        0.69490
F          0.69220       -4.58690        0.98830
F          2.27920       -4.25580        2.55870
F          0.18540       -4.77980        3.15000
