22
TSA8_9_CCl3_NH2_CF3
C          1.25170       -1.77980        0.91250
C          1.48800       -0.35900        1.51740
C          2.12700       -2.05870       -0.35410
H          0.20780       -1.72190        0.53370
N          2.81810       -0.13750        2.08490
C          1.30900       -2.82710        2.08620
C          0.62360       -2.22460        3.33820
C         -0.24240       -0.99510        3.04890
O          0.48720        0.06480        2.43980
C          0.73460       -4.22480        1.76320
H          2.36110       -2.99040        2.40090
H          0.14070       -2.96970        4.00520
H         -0.62420       -0.62610        4.02190
H         -1.11940       -1.26740        2.42360
Cl         1.42060       -3.33130       -1.38850
Cl         2.17800       -0.61530       -1.40930
Cl         3.80740       -2.52020        0.04030
H          3.02620       -0.81990        2.84680
H          3.54440       -0.18600        1.33880
F          1.51550       -4.87990        0.83420
F          0.73990       -5.01360        2.90150
F         -0.56350       -4.12280        1.29800
