18
TSA8_9_CBr3_I_CN
C          2.21300        1.62060        0.88370
C          1.01040        1.69330       -0.11810
C          2.27990        0.22370        1.63000
H          3.13380        1.67450        0.26520
I          1.67430        2.02610       -2.13020
C          2.17730        2.92930        1.72220
C          0.82830        3.10980        2.43760
C         -0.31040        2.55460        1.57170
O          0.02460        2.66940        0.20620
C          3.31490        3.16660        2.62050
H          2.21910        3.75390        0.97780
H          0.75360        2.66510        3.45200
H         -1.24040        3.11860        1.78830
H         -0.52550        1.48960        1.82430
Br         1.05390       -1.11680        0.90270
Br         4.04730       -0.55550        1.40070
Br         1.97040        0.23220        3.54900
N          4.19280        3.39620        3.33900
