20
TSA8_9_CN_OMe_OH
C          2.68680        1.09540       -0.80940
C          1.64910        0.60170       -1.78230
C          2.20040        0.97760        0.58410
H          3.53140        0.37020       -0.90650
O          1.88060       -0.56660       -2.41850
C          3.20360        2.51300       -1.15910
C          2.39850        3.52620       -0.35900
C          1.17530        3.90610       -0.71940
O          0.64050        1.24960       -2.02220
O          4.57280        2.56550       -0.81890
H          3.13460        2.72020       -2.25610
H          2.77800        3.82990        0.61430
H          0.75150        3.59580       -1.66410
H          0.58420        4.51880       -0.05070
N          1.75600        0.94430        1.65270
C          1.70740       -0.73320       -3.76700
H          1.77680       -1.81320       -4.00290
H          2.53120       -0.20010       -4.28800
H          0.72740       -0.33590       -4.10350
H          4.82200        3.48600       -0.54690
