20
TSA8_9_CN_OMe_OH
C          1.64830       -0.02720       -0.12460
C          1.46120        0.30700       -1.41730
C          1.83500        0.84670        1.01890
H          1.59860       -1.08650        0.05160
O          1.39450       -0.72730       -2.28700
C          3.59130        4.06640       -1.61750
C          2.94540        3.04820       -1.03210
C          1.48630        2.78400       -1.29870
O          1.33490        1.56990       -1.91940
O          4.88830        4.33400       -1.34350
H          3.07480        4.70610       -2.32380
H          3.48650        2.40730       -0.34410
H          1.06150        3.56610       -1.96860
H          0.88710        2.82280       -0.36840
N          1.98290        1.56260        1.91830
C          1.60680       -0.55130       -3.63280
H          1.60760       -1.53110       -4.14370
H          2.60670       -0.08320       -3.77410
H          0.81670        0.08790       -4.07520
H          5.41010        3.83240       -0.70040
