20
TSA8_9_CN_OMe_OH
C          2.78030        1.01750       -0.85510
C          1.39180        0.86010       -1.50620
C          2.50260        1.04120        0.59560
H          3.44370        0.15800       -1.08920
O          1.18670       -0.36710       -2.18290
C          3.37980        2.33130       -1.40800
C          2.47630        3.50530       -1.02100
C          0.99750        3.14040       -1.30490
O          0.87990        2.01620       -2.17140
O          4.73390        2.53950       -1.08900
H          3.34660        2.27010       -2.51890
H          2.58080        3.75300        0.06380
H          0.52750        4.02590       -1.77720
H          0.43520        2.95720       -0.35850
N          2.25640        1.09520        1.72590
C          1.61810       -0.29530       -3.52370
H          1.67450       -1.33070       -3.92430
H          2.63790        0.13610       -3.63090
H          0.87150        0.25080       -4.13800
H          4.81730        2.67960       -0.11560
