17
TSA8_9_CBr3_Cl_Cl
C          1.81710       -0.01750        0.01800
C          1.11040       -1.09840        0.40020
C          2.19070        0.40330       -1.39170
H          2.16480        0.64720        0.80450
Cl         0.82010       -1.32210        2.13040
C         -0.14100       -5.12240       -1.57820
C         -0.48080       -3.83760       -1.42780
C         -0.15790       -3.07440       -0.17600
O          0.62980       -1.99080       -0.50000
Cl        -0.53610       -5.97780       -3.06000
H          0.38220       -5.65820       -0.79220
H         -1.00500       -3.32420       -2.22860
H          0.37530       -3.72140        0.55500
H         -1.10830       -2.72210        0.27990
Br         1.46280        2.17000       -1.69960
Br         4.11960        0.52010       -1.49380
Br         1.60060       -0.72620       -2.86440
