18
TSA8_9_Me_CN_Cl
C          1.24410       -1.53750       -0.62400
C          2.29640       -1.83050        0.40050
C          1.67790       -0.40170       -1.57260
H          0.35600       -1.16990       -0.06460
C          1.98110       -1.69610        1.80260
C          0.82150       -2.84080       -1.37110
C         -0.65120       -2.79810       -1.70570
C         -1.55620       -2.84110       -0.71440
O          3.39930       -2.26270        0.06770
Cl         1.80650       -3.17160       -2.83280
H          0.93900       -3.72620       -0.70690
H         -0.99380       -2.75570       -2.73440
H         -1.23530       -2.91380        0.32430
H         -2.61950       -2.82020       -0.92110
H          0.97830       -0.30670       -2.42940
H          2.69960       -0.59010       -1.97300
H          1.69770        0.56360       -1.02490
N          1.70350       -1.62360        2.92270
