18
TSA8_9_Me_CN_Cl
C          1.15430       -1.54140       -1.13270
C          1.43590       -2.07260        0.31730
C          2.13770       -0.47790       -1.63410
H          0.16530       -1.04000       -1.19600
C          1.42880       -1.09820        1.40930
C          1.07360       -2.83610       -1.96330
C         -0.22900       -3.54240       -1.53700
C         -0.50660       -3.32730       -0.02900
O          0.71160       -3.25190        0.68560
Cl         1.09970       -2.63200       -3.73710
H          1.94430       -3.49000       -1.71250
H         -1.10060       -3.09720       -2.07310
H         -1.15810       -4.13740        0.35530
H         -1.08070       -2.38540        0.14810
H          1.91160       -0.24540       -2.69810
H          3.20030       -0.77250       -1.54270
H          1.95760        0.46610       -1.07430
N          1.43520       -0.36080        2.29790
