18
TSA8_9_CN_Me_H
C          2.43210       -1.43580        1.03430
C          1.68050       -0.63480        2.13760
C          2.15950       -1.44070       -0.45220
H          2.65860       -0.47480        0.54190
C          1.49730        0.87340        2.18210
C          2.24770       -2.98560        1.36090
C          1.00510       -3.50990        0.67710
C         -0.20490       -3.10210        1.05240
O          1.32130       -1.21030        3.15490
H          3.12940       -3.56580        1.01160
H          2.19960       -3.22960        2.44990
H          1.12940       -4.09220       -0.23200
H         -0.33300       -2.49180        1.93610
H         -1.06740       -3.34810        0.45120
N          1.99760       -1.49130       -1.60330
H          2.05490        1.28190        3.05740
H          0.42000        1.08710        2.33800
H          1.83830        1.42300        1.28120
