20
TSA8_9_Br_CHF2_CF3
C          1.90350        0.05710       -0.22280
C          1.48090        0.85620       -1.22330
Br         2.17160        0.64990        1.58160
H          2.07630       -0.99930       -0.40560
C          1.22460        0.27660       -2.58950
C          2.51260        3.83510       -3.12310
C          3.05680        3.37950       -1.98240
C          2.20570        3.13450       -0.76730
O          1.23560        2.18040       -1.02720
C          3.31190        4.10270       -4.36970
H          1.44300        4.02400       -3.16300
H          4.12310        3.18770       -1.91250
H          1.70680        4.08750       -0.49140
H          2.84880        2.83070        0.08100
F         -0.09420        0.49310       -2.94120
F          2.04650        0.88480       -3.51790
H          1.42190       -0.81670       -2.61820
F          4.65610        3.81930       -4.19420
F          2.82070        3.31930       -5.39710
F          3.17710        5.43380       -4.71470
