14
TSA8_9_Br_F_I
C          1.76910        0.09780       -0.04180
C          1.45210        1.27770       -0.60050
Br         1.97540       -0.20910        1.84050
H          1.87720       -0.77070       -0.68460
F          1.25870        1.31890       -1.94530
C          3.70350        4.79190       -0.12670
C          3.37810        3.50200        0.00670
C          2.23560        3.05190        0.87750
O          1.27380        2.42530        0.10520
I          5.30300        5.36320       -1.37880
H          3.15220        5.56670        0.39690
H          3.94710        2.75170       -0.53420
H          1.76120        3.92350        1.37830
H          2.62290        2.38940        1.67170
