16
TSA8_9_H_F_NO2
C          1.00870       -0.27840        1.61930
C          1.18960        0.98200        0.74500
H          1.98370       -0.75050        1.86420
H          0.42540       -1.00160        1.00840
F          0.15970        1.12120       -0.17580
C          0.29010        0.06290        2.94220
C         -0.72150        1.17250        2.67470
C          0.08480        2.42550        2.24530
O          1.29440        2.15300        1.52990
N         -0.33110       -1.11000        3.52470
H          1.03620        0.47650        3.66050
H         -1.40640        0.83750        1.86440
H          0.39300        2.92560        3.18740
H         -0.56120        3.13690        1.68850
O         -1.18560       -1.70120        2.93510
O          0.03870       -1.52500        4.71690
