21
TSA8_9_CCl3_Me_CN
C          2.11330        1.63400       -0.89380
C          1.29630        0.68910       -1.78210
C          2.07440        1.19470        0.63960
H          3.16990        1.50630       -1.22040
C          1.93650       -0.36100       -2.63830
C          1.72240        3.12390       -1.25920
C          0.80480        3.77650       -0.26560
C         -0.47960        3.45820       -0.15410
O          0.08220        0.80970       -1.83940
C          2.86930        4.02940       -1.47200
H          1.23920        3.15290       -2.26430
H          1.21210        4.52880        0.41490
H         -0.93270        2.73850       -0.81830
H         -1.08560        3.93360        0.60650
Cl         2.37140        2.47730        1.85470
Cl         0.53870        0.39170        1.10410
Cl         3.37230        0.01300        0.95900
H          2.69050        0.08850       -3.31450
H          1.16660       -0.87110       -3.26120
H          2.41270       -1.12070       -1.98640
N          3.73850        4.75410       -1.72890
