21
TSA8_9_CCl3_Me_CN
C          2.24060        1.77450       -0.76450
C          1.07780        0.92540       -1.39350
C          2.33250        1.53950        0.80200
H          3.21080        1.43010       -1.19010
C          1.58370        0.03700       -2.52660
C          2.06590        3.21670       -1.31680
C          0.71500        3.81230       -0.91760
C         -0.35560        2.71430       -0.91860
O         -0.03000        1.70600       -1.85870
C          3.18080        4.14540       -1.08650
H          2.02680        3.10860       -2.42440
H          0.70230        4.32520        0.06860
H         -1.33790        3.16970       -1.15760
H         -0.47070        2.27300        0.09350
Cl         2.38560        3.02530        1.78930
Cl         1.01580        0.51680        1.47670
Cl         3.82970        0.63950        1.17850
H          2.03020        0.65170       -3.33710
H          0.74370       -0.55890       -2.93780
H          2.35190       -0.66240       -2.13290
N          4.04150        4.90210       -0.92580
