14
TSA8_9_Cl_F_Br
C          1.74520       -0.73400       -1.71420
C          0.48780       -1.54130       -1.54260
Cl         1.58250        0.77790       -0.77100
H          2.59950       -1.31150       -1.29810
F          0.54730       -2.77300       -0.97270
C          2.01850       -0.42580       -3.19960
C          3.29320        0.36410       -3.35370
C          3.31000        1.58210       -3.90360
O         -0.59020       -1.09920       -1.90940
Br         2.21340       -2.06950       -4.22140
H          1.15660        0.13930       -3.61950
H          4.22680       -0.07000       -3.00670
H          2.39840        2.05050       -4.26160
H          4.24700        2.12120       -3.99730
