14
TSA8_9_Cl_F_Br
C          1.78850       -0.09330       -0.10540
C          1.50440       -0.47460       -1.35510
Cl         1.90960        1.60470        0.33950
H          1.94660       -0.84350        0.66300
F          1.41230       -1.79840       -1.64760
C          2.24860       -0.86290       -4.82950
C          2.95360       -0.15170       -3.94480
C          2.31440        0.93540       -3.12420
O          1.29550        0.43930       -2.33350
Br         3.09210       -2.23530       -5.85860
H          1.18990       -0.67180       -4.97800
H          4.01180       -0.35580       -3.81260
H          1.89810        1.70610       -3.80670
H          3.08290        1.42000       -2.48320
