18
TSA8_9_OMe_Cl_Cl
C          1.46580        0.22320        0.04240
C          1.04730       -1.03770        0.17700
O          1.63400        0.74940       -1.19390
H          1.65240        0.82890        0.92550
Cl         0.80790       -1.68650        1.80270
C         -1.01050       -3.59720       -3.11980
C         -0.96460       -2.82330       -2.02980
C          0.11860       -2.96600       -1.00020
O          0.81300       -1.77570       -0.93840
Cl        -2.28370       -3.37940       -4.30900
H         -0.26270       -4.36530       -3.29130
H         -1.72210       -2.05870       -1.88320
H          0.82410       -3.77890       -1.27510
H         -0.35290       -3.22750       -0.03010
C          1.96390        2.06940       -1.39430
H          2.04290        2.26240       -2.48450
H          2.93870        2.29940       -0.91460
H          1.17230        2.72570       -0.97310
