16
TSA8_9_F_CN_CN
C          2.22610       -1.66950       -0.73270
C          2.22210       -1.92400        0.75960
F          3.18510       -0.80280       -1.23050
H          1.29840       -1.06040       -0.77700
C          2.95450       -1.10310        1.68730
C          2.00700       -2.96310       -1.59700
C          0.65980       -2.77550       -2.22660
C         -0.43320       -3.04860       -1.51060
O          1.33490       -2.62530        1.22380
C          2.99830       -3.28760       -2.65350
H          1.97820       -3.86390       -0.93890
H          0.56350       -2.21610       -3.15370
H         -0.34460       -3.51900       -0.53480
H         -1.40920       -2.75750       -1.87200
N          3.54150       -0.47780        2.46520
N          3.72070       -3.61320       -3.50180
