16
TSA8_9_F_CN_CN
C          1.64930       -0.05200       -0.01810
C          1.76570       -1.23060        0.65690
F          1.47410        0.15180       -1.33340
H          1.56260        0.89110        0.56920
C          2.50870       -1.11010        1.83510
C          1.77580       -4.24030       -2.33810
C          1.47570       -3.03330       -1.80820
C          0.44240       -2.87880       -0.70210
O          1.04870       -2.41970        0.45380
C          2.75360       -4.40270       -3.39230
H          1.29510       -5.13630       -1.97360
H          1.98420       -2.15200       -2.18750
H         -0.02200       -3.86990       -0.51990
H         -0.36390       -2.19720       -1.02150
N          3.11630       -1.01300        2.79950
N          3.55970       -4.43890       -4.22300
