16
TSA8_9_H_NO2_H
C          2.83600        0.38980        1.58490
C          1.29900        0.14600        1.48330
H          3.38070       -0.34720        0.95580
H          3.10780        1.40100        1.21390
N          0.58450        1.37070        1.79410
C          3.25460        0.18560        3.03680
C          2.92810       -1.25180        3.47250
C          1.81150       -1.86770        2.60850
O          0.81240       -0.91360        2.32050
H          4.33300        0.39740        3.19930
H          2.66790        0.89170        3.66360
H          3.81150       -1.92120        3.38550
H          1.37010       -2.73260        3.14500
H          2.22090       -2.27090        1.65370
O         -0.20630        1.40730        2.68870
O          0.75920        2.43730        1.04410
