23
TSA8_9_CF3_Me_CBr3
C          2.02590        0.16400        0.15130
C          1.61980        1.44500       -0.11490
C          1.80240       -0.80840        1.29130
H          2.64100       -0.30430       -0.61400
C          2.05620        2.05550       -1.42300
C          1.67460        3.47290        3.72480
C          1.57190        2.42270        2.89250
C          0.40640        2.27970        1.94600
O          0.84450        2.28360        0.64050
C          2.84000        3.63950        4.66380
H          0.89680        4.23190        3.72420
H          2.34780        1.66370        2.89300
H         -0.27460        3.14940        2.06490
H         -0.23230        1.40630        2.15170
F          3.03550       -1.17230        1.79910
F          1.03640       -0.36090        2.33250
F          1.19310       -1.93800        0.77880
H          2.64740        2.97250       -1.21650
H          1.15920        2.33320       -2.01490
H          2.68140        1.37780       -2.04310
Br         2.61940        5.25990        5.70540
Br         2.95470        2.14060        5.88950
Br         4.49730        3.78140        3.66590
