23
TSA8_9_CF3_Me_CBr3
C          2.34080        1.52820        1.39190
C          1.22750        1.75030        0.31020
C          2.36300        0.03360        1.77860
H          3.33170        1.74020        0.93300
C          1.79960        2.05040       -1.07300
C          2.12640        2.56170        2.54870
C          0.66230        2.55580        3.04170
C         -0.31910        2.34840        1.87960
O          0.28180        2.74770        0.66730
C          3.14140        2.60070        3.72740
H          2.25600        3.53990        2.03090
H          0.43380        1.81470        3.83640
H         -1.24220        2.93340        2.06690
H         -0.64750        1.28370        1.81920
F          3.46620       -0.25360        2.55630
F          1.21410       -0.33120        2.45630
F          2.46120       -0.73840        0.63370
H          2.35750        3.01090       -1.05350
H          0.97330        2.12750       -1.81000
H          2.48320        1.23530       -1.38980
Br         2.86860        4.23290        4.74800
Br         2.96370        1.14080        5.00440
Br         4.97420        2.65640        3.08540
