20
TSA8_9_OMe_NH2_Cl
C          0.62320       -1.21450       -0.47850
C          1.59070       -1.15560        0.68760
O          1.33970       -1.09730       -1.69680
H         -0.15020       -0.41360       -0.38490
N          1.46220       -0.20480        1.64210
C         -0.13890       -2.55470       -0.48300
C         -0.95530       -2.71860        0.77520
C         -0.75690       -3.73310        1.62180
O          2.49600       -1.97310        0.76620
Cl        -1.25010       -2.62210       -1.87940
H          0.59090       -3.38820       -0.59180
H         -1.72760       -1.98830        1.00040
H          0.00580       -4.48230        1.43360
H         -1.36350       -3.81700        2.51760
C          1.59480        0.25970       -1.99180
H          2.14340        0.31020       -2.95470
H          2.24470        0.72630       -1.21960
H          0.64970        0.83090       -2.12930
H          2.12250       -0.16650        2.43320
H          0.70740        0.49400        1.59490
