20
TSA8_9_CCl3_H_CH2F
C          1.66790       -0.04570        0.03330
C          1.06600       -1.14490        0.50380
C          2.25970        0.00960       -1.35210
H          1.71850        0.83510        0.66810
H          0.98660       -2.02910       -0.12460
C          0.57910       -4.16660        3.41540
C          0.41720       -3.47870        2.27490
C         -0.28030       -2.14110        2.24330
O          0.53710       -1.14240        1.75180
C          1.24920       -5.50620        3.42000
H          0.21720       -3.76120        4.35600
H          0.77890       -3.90150        1.34200
H         -0.61190       -1.84850        3.26210
H         -1.18530       -2.22330        1.60420
Cl         1.01350       -0.34200       -2.58050
Cl         2.91140        1.63670       -1.66780
Cl         3.58570       -1.17070       -1.50540
F          0.53980       -6.38990        2.62590
H          1.28250       -5.90320        4.45620
H          2.28610       -5.41500        3.03550
