22
TSA8_9_Et_NH2_I
C          2.58920       -0.73310        1.05230
C          1.16120       -0.59630        1.69310
C          2.44420       -0.99100       -0.47710
H          3.12130        0.24010        1.14440
N          1.14580        0.52670        2.62590
C          3.34340       -1.79490        1.87810
C          2.61960       -3.14250        1.81190
C          1.09300       -2.94990        1.75520
O          0.71160       -1.75700        2.40320
I          5.46190       -1.98930        1.59490
H          3.28420       -1.45110        2.93490
H          2.92650       -3.76430        0.94420
H          0.60750       -3.81980        2.24270
H          0.69800       -2.95010        0.71890
C          3.75580       -1.01010       -1.25690
H          1.83680       -0.15790       -0.89520
H          1.91080       -1.93140       -0.70320
H          4.32920       -0.07560       -1.08240
H          3.53470       -1.09290       -2.34240
H          4.36380       -1.89310       -0.98840
H          0.18810        0.60620        3.03510
H          1.32750        1.40970        2.09710
