24
TSA8_9_CN_Me_Et
C          1.73920       -0.04490        0.07230
C          1.51160       -0.86070        1.13590
C          1.84590       -0.40470       -1.31980
H          1.81990        1.02190        0.25550
C          1.49830       -0.23630        2.49600
C          3.64590       -3.81840       -0.91820
C          2.97690       -3.49090        0.18720
C          1.52760       -3.13390        0.12080
O          1.25660       -2.20470        1.09970
C          5.12800       -4.03340       -0.90040
H          3.11980       -3.87110       -1.86580
H          3.49210       -3.40530        1.14340
H          0.93050       -4.05150        0.31190
H          1.21390       -2.77000       -0.87310
N          1.93800       -0.64520       -2.44830
H          2.18540       -0.80050        3.16330
H          0.46970       -0.27980        2.89470
H          1.85560        0.81710        2.47800
C          5.75580       -2.92490       -1.73590
H          5.38230       -5.03240       -1.31520
H          5.53140       -3.97230        0.13510
H          5.42080       -3.00520       -2.79260
H          6.86100       -2.98620       -1.69440
H          5.43930       -1.93420       -1.33800
