18
TSA8_9_NO2_CN_OH
C          1.74670        0.02690        0.05470
C          1.56630        0.05060        1.38810
N          1.81400       -1.19020       -0.69100
H          1.76120        0.96600       -0.49190
C          1.33440        1.30320        2.07690
C         -0.03680       -3.23460        4.33460
C          0.25600       -2.83950        3.09320
C          0.30590       -1.39910        2.72850
O          1.47540       -1.11170        2.06820
O         -0.12530       -4.54650        4.63790
H         -0.22620       -2.49960        5.11120
H          0.42020       -3.57250        2.30740
H          0.14740       -0.71270        3.58810
H         -0.52640       -1.26390        2.01590
O          2.13790       -1.15550       -1.83790
O          1.36520       -2.32350       -0.18980
N          1.14550        2.29130        2.64900
H          0.01900       -5.23670        3.97420
