21
TSA8_9_Me_OH_CHF2
C          2.75930       -1.41580        0.32460
C          1.53110       -0.92810        1.07030
C          2.83620       -0.70680       -1.03930
H          3.65020       -1.10120        0.91090
O          1.65460       -0.25900        2.23710
C          2.77560       -2.97740        0.25290
C          1.63980       -3.53140       -0.58490
C          0.68610       -4.30960       -0.06430
O          0.41430       -1.12770        0.61750
C          4.10950       -3.55540       -0.26040
H          2.67570       -3.33930        1.30230
H          1.59740       -3.29760       -1.64450
H          0.68650       -4.57340        0.98840
H         -0.10820       -4.68900       -0.69900
H          1.96600       -0.96390       -1.67880
H          3.77040       -0.95800       -1.57610
H          2.83700        0.39410       -0.88760
H          2.51660       -0.07340        2.63470
F          4.33900       -3.23920       -1.58680
F          5.16330       -3.09710        0.51050
H          4.08000       -4.66330       -0.17770
