14
TSA8_9_Cl_Cl_Br
C          1.96330       -0.30170        0.01110
C          1.39570       -1.43280       -0.44340
Cl         2.46640        1.03220       -1.02030
H          2.09080       -0.16660        1.08100
Cl         0.86330       -2.63430        0.72130
C          2.53090       -4.21940       -2.39950
C          3.04140       -2.98450       -2.45310
C          2.16560       -1.79260       -2.72660
O          1.17880       -1.68540       -1.76170
Br         3.65750       -5.72270       -2.04970
H          1.46890       -4.38690       -2.55420
H          4.10570       -2.83490       -2.29800
H          1.68370       -1.92630       -3.71780
H          2.78720       -0.87900       -2.77730
