14
TSA8_9_Cl_Cl_Br
C          2.46160       -1.85420       -0.37950
C          1.08610       -1.26200       -0.80960
Cl         3.76110       -0.63480       -0.57560
H          2.44550       -2.09920        0.70450
Cl        -0.20080       -1.96090        0.21080
C          2.72710       -3.10690       -1.21960
C          2.73950       -2.75870       -2.71720
C          1.84240       -1.54440       -3.01900
O          0.71860       -1.52280       -2.16750
Br         4.35110       -4.04020       -0.70400
H          1.87900       -3.80340       -1.04130
H          3.75510       -2.51740       -3.09930
H          1.51860       -1.58770       -4.07920
H          2.40100       -0.58780       -2.91650
