19
TSA8_9_CCl3_NH2_H
C          1.62470       -1.63830       -0.34960
C          0.77180       -1.08900        0.78650
C          1.56610       -0.71600       -1.60710
H          2.68390       -1.61290       -0.00850
N          1.33730       -0.75180        1.96920
C          1.35200       -3.14610       -0.64500
C         -0.03060       -3.52710       -1.11670
C         -1.09270       -3.55490       -0.30630
O         -0.42870       -0.92000        0.63280
H          2.06550       -3.46520       -1.43330
H          1.59350       -3.75690        0.25220
H         -0.15930       -3.83990       -2.14870
H         -1.00940       -3.30170        0.74470
H         -2.06070       -3.85980       -0.69050
Cl        -0.05640       -0.63020       -2.35310
Cl         2.04930        0.94800       -1.16910
Cl         2.71590       -1.26430       -2.85980
H          0.76050       -0.36950        2.73260
H          2.34880       -0.87140        2.12950
