19
TSA8_9_CCl3_NH2_H
C          1.92220       -0.05630       -0.03860
C          1.26040       -1.12310        0.46300
C          2.16390        0.29240       -1.49680
H          2.33270        0.65650        0.67260
N          1.13640       -1.24730        1.87860
C         -0.16520       -5.21860       -1.27430
C         -0.45890       -3.91850       -1.17620
C         -0.07910       -3.10990        0.02990
O          0.71720       -2.05480       -0.36540
H         -0.45500       -5.77540       -2.15900
H          0.35930       -5.73940       -0.47820
H         -0.98800       -3.43200       -1.98980
H          0.46370       -3.74070        0.76690
H         -1.00660       -2.71490        0.49810
Cl         1.50850       -0.83970       -2.71570
Cl         1.44370        1.88960       -1.80990
Cl         3.91950        0.41080       -1.76190
H          0.63760       -2.03720        2.31010
H          1.54600       -0.54240        2.50880
