21
TSA8_9_CCl3_NO2_NO2
C          2.77780        0.84590        0.37490
C          1.52240        1.41970       -0.29080
C          2.38750       -0.33780        1.32920
H          3.40620        0.37730       -0.41200
N          1.32720        1.34120       -1.63840
C          3.63900        2.04750        0.91960
C          2.94570        2.91100        1.95710
C          2.62380        4.18670        1.71720
O          0.67360        1.96070        0.40660
N          4.94250        1.64660        1.42150
H          3.82030        2.67600        0.01550
H          2.71000        2.49910        2.93060
H          2.84060        4.65350        0.76140
H          2.13360        4.77520        2.48580
Cl         1.44340        0.15750        2.76100
Cl         1.38550       -1.52090        0.43530
Cl         3.79850       -1.28050        1.87680
O          0.33790        1.79800       -2.12820
O          2.21920        0.76990       -2.42000
O          5.05310        1.13750        2.49560
O          6.02770        2.01890        0.77680
