17
TSA8_9_Br_F_CHF2
C          1.85300        1.89330       -1.22260
C          0.54820        1.70760       -1.94930
Br         1.69850        1.03790        0.52120
H          2.65350        1.36690       -1.78720
F          0.51660        1.01260       -3.11600
C          2.22630        3.39030       -1.07730
C          3.53320        3.52710       -0.32580
C          3.61610        4.17740        0.83930
O         -0.48570        2.17700       -1.49960
C          2.35980        4.08330       -2.44730
H          1.41200        3.90100       -0.51440
H          4.43310        3.08390       -0.74380
H          2.74160        4.63420        1.29220
H          4.57040        4.25500        1.34990
F          2.66670        5.42190       -2.27330
F          3.35300        3.48730       -3.20650
H          1.40280        4.02340       -3.00630
