17
TSA8_9_Br_F_CHF2
C          1.65940       -0.01670       -0.15130
C          1.82470        1.21650       -0.63020
Br         1.22710       -0.32690        1.69080
H          1.81530       -0.87340       -0.79890
F          2.18990        1.38320       -1.93090
C          2.16850        4.58470       -1.78430
C          2.99840        3.93770       -0.95920
C          2.54630        3.31560        0.33470
O          1.63090        2.29340        0.17280
C          2.68320        5.20080       -3.05300
H          1.11340        4.67610       -1.53970
H          4.05330        3.86220       -1.21190
H          2.10160        4.09560        0.98950
H          3.43500        2.90180        0.85000
F          3.65590        6.13930       -2.75770
F          3.22520        4.22030       -3.86550
H          1.85450        5.69980       -3.59290
