19
TSA8_9_I_NO2_CCl3
C          1.72470        0.17270       -0.08960
C          1.41420        0.96380       -1.14530
I          2.19870        0.79680        1.88610
H          1.69470       -0.90620       -0.19870
N          1.03130        0.37310       -2.38730
C          2.81100        5.38580       -1.45450
C          2.90890        4.05090       -1.55210
C          2.38320        3.12540       -0.49690
O          1.42130        2.32440       -1.07830
C          3.33030        6.29270       -2.54030
H          2.34210        5.82540       -0.57800
H          3.37530        3.60610       -2.42720
H          1.92970        3.68700        0.34840
H          3.24390        2.53160       -0.12630
O          0.74830        1.07180       -3.31250
O          0.99230       -0.93520       -2.53600
Cl         3.04370        7.99500       -2.10110
Cl         5.08340        6.05570       -2.76750
Cl         2.48890        5.95990       -4.07790
