23
TSA8_9_CBr3_CH2F_Me
C          1.61800       -0.60020        2.02890
C          3.06710       -0.37670        2.50000
C          1.44970       -1.42710        0.69190
H          1.25970        0.41730        1.75980
C          4.30480       -1.04260        1.95290
C          0.76670       -1.05170        3.28340
C         -0.73160       -1.00580        3.07600
C         -1.37350        0.13170        2.78440
O          3.24510        0.41970        3.41110
C          1.16870       -2.42320        3.85000
H          0.96890       -0.32260        4.10020
H         -1.31930       -1.91380        3.18540
H         -0.83810        1.06910        2.67890
H         -2.45060        0.12570        2.65290
Br        -0.37460       -1.43310        0.02330
Br         2.43880       -0.56030       -0.74620
Br         1.99630       -3.29810        0.74340
F          5.17430       -0.07750        1.47990
H          4.11650       -1.75480        1.13920
H          4.80290       -1.60210        2.77200
H          2.25750       -2.46100        4.06270
H          0.88960       -3.24820        3.17100
H          0.63250       -2.60120        4.80720
