23
TSA8_9_CBr3_CH2F_Me
C          1.22230       -1.16710        1.74030
C          1.83620        0.29000        1.65640
C          1.79390       -2.17270        0.68250
H          0.15150       -1.06420        1.46040
C          3.36880        0.36220        1.66210
C          1.28900       -1.60020        3.23790
C          0.55500       -0.55770        4.11580
C          0.25550        0.74970        3.36980
O          1.37910        1.20740        2.65420
C          0.75720       -3.00100        3.56580
H          2.35580       -1.58860        3.54290
H         -0.41550       -0.92840        4.51430
H         -0.04070        1.51750        4.11360
H         -0.61080        0.63950        2.68010
Br         1.87250       -1.34410       -1.07750
Br         3.55350       -2.88780        1.12070
Br         0.60910       -3.69580        0.42370
F          3.76710        1.68070        1.53480
H          3.79780       -0.18740        0.80570
H          3.78030       -0.03820        2.61070
H          1.35910       -3.78170        3.06160
H         -0.31010       -3.09380        3.27170
H          0.84390       -3.19090        4.65740
