19
TSA8_9_F_OMe_CN
C          2.27070        1.16750       -1.53080
C          1.11740        0.13540       -1.69730
F          2.08620        1.84250       -0.33240
H          3.25590        0.65710       -1.48730
O          1.52860       -1.21810       -1.79930
C          2.16880        2.15400       -2.70370
C          0.79390        2.83610       -2.65540
C         -0.31860        1.81140       -2.35540
O          0.11180        0.49660       -2.64400
C          3.23940        3.15860       -2.77300
H          2.23610        1.56250       -3.64150
H          0.74200        3.62750       -1.86960
H         -1.20610        2.06990       -2.96830
H         -0.64530        1.86960       -1.29060
C          1.92050       -1.54680       -3.11640
H          2.11440       -2.64020       -3.15080
H          2.86530       -1.03790       -3.40300
H          1.11090       -1.36770       -3.85750
N          4.06530        3.96490       -2.86360
