19
TSA8_9_Me_Cl_NO2
C          1.63370       -2.11640       -0.14510
C          1.26180       -1.07240        0.88520
C          1.40360       -1.54120       -1.55380
H          2.72380       -2.31370       -0.04280
Cl         2.48420       -0.43330        1.97250
C          0.89670       -3.46160        0.14230
C         -0.61080       -3.34550        0.03620
C         -1.41250       -3.55930        1.08480
O          0.11750       -0.65280        0.96760
N          1.36180       -4.53010       -0.72720
H          1.16630       -3.73910        1.18850
H         -1.05930       -3.08550       -0.91770
H         -1.00940       -3.82350        2.05770
H         -2.48790       -3.46900        0.97260
H          0.33040       -1.32080       -1.73100
H          1.76910       -2.23090       -2.33880
H          1.97610       -0.59540       -1.66800
O          1.14180       -4.50930       -1.90080
O          1.97380       -5.57280       -0.20740
