22
TSA8_9_Me_NH2_CF3
C          3.02630       -0.61490       -1.69800
C          1.56190       -1.05320       -1.45730
C          3.21370        0.80230       -1.13160
H          3.71120       -1.25760       -1.10210
N          1.36150       -2.48280       -1.67900
C          3.39370       -0.67100       -3.21720
C          2.13600       -0.82850       -4.09150
C          0.99900        0.03340       -3.52940
O          0.60890       -0.28790       -2.19220
C          4.40970       -1.78230       -3.54060
H          3.88330        0.28770       -3.50210
H          1.78190       -1.88150       -4.10420
H          0.11810       -0.10390       -4.19070
H          1.29260        1.10290       -3.57750
H          2.56650        1.54110       -1.64710
H          4.27220        1.11980       -1.24730
H          2.96840        0.81390       -0.04800
H          0.35920       -2.70570       -1.48550
H          1.93440       -3.00460       -0.97760
F          3.89770       -3.02660       -3.21620
F          4.71770       -1.76040       -4.88970
F          5.57500       -1.57670       -2.82260
