19
TSA8_9_F_NO2_CBr3
C          3.20070        1.37110       -1.64510
C          1.71110        1.11800       -1.81000
F          3.69800        0.48650       -0.70270
H          3.66200        1.13570       -2.62550
N          1.26060       -0.11260       -2.18060
C          3.55640        2.83680       -1.25400
C          3.00040        3.15820        0.12190
C          2.09470        4.12220        0.31640
O          0.90850        2.02390       -1.62450
C          5.08530        3.12990       -1.29590
H          3.09320        3.50440       -2.01580
H          3.34850        2.59190        0.98090
H          1.71860        4.71580       -0.51090
H          1.72330        4.32270        1.31610
O          0.09060       -0.30990       -2.31910
O          2.10720       -1.09680       -2.39750
Br         5.41860        5.00390       -0.89560
Br         6.12170        2.07390       -0.02990
Br         5.81740        2.82330       -3.07120
