22
TSA8_9_CBr3_CF3_NO2
C          1.40910       -1.53810        1.38140
C          2.79590       -2.21130        1.33280
C          1.15530       -0.39740        0.33110
H          1.48710       -0.98280        2.34710
C          3.45350       -2.90820        0.16880
C          0.19550       -2.49250        1.69310
C         -0.58950       -2.98240        0.49270
C         -1.88900       -2.66610        0.34710
O          3.46320       -2.16390        2.35780
N          0.60340       -3.62970        2.50250
H         -0.51120       -1.87550        2.29810
H         -0.11180       -3.60150       -0.25550
H         -2.40860       -2.05170        1.08010
H         -2.45490       -3.02140       -0.50660
Br        -0.36470        0.68530        0.86500
Br         2.68230        0.79980        0.24820
Br         0.78410       -0.94970       -1.50270
F          4.63690       -2.24850       -0.11820
F          3.75460       -4.21030        0.52260
F          2.67600       -2.93770       -0.96110
O          1.28490       -4.50090        2.03610
O          0.13750       -3.76550        3.72800
