15
TSA8_9_CN_F_Cl
C          1.64470        0.03990        0.09560
C          1.62900       -0.32980        1.39710
C          1.75520       -0.84790       -1.03880
H          1.53540        1.08840       -0.15190
F          1.49340        0.64360        2.33420
C          1.84920       -4.94500        1.04680
C          1.78220       -3.66560        0.67460
C          0.93970       -2.66020        1.39870
O          1.72570       -1.61410        1.83770
Cl         2.84030       -6.06760        0.13030
H          1.29090       -5.31000        1.90250
H          2.34690       -3.34240       -0.18960
H          0.42810       -3.11480        2.27710
H          0.14570       -2.29520        0.71930
N          1.84080       -1.52250       -1.97480
