15
TSA8_9_CN_F_Cl
C          2.46840       -1.60030        0.36800
C          1.41260       -0.82960        1.18740
C          2.14600       -1.40890       -1.05860
H          3.49220       -1.20950        0.55480
F          1.95450        0.32810        1.71830
C          2.42950       -3.09080        0.76040
C          0.98120       -3.58230        0.72310
C          0.10310       -2.67070        1.61290
O          0.84280       -1.61680        2.21310
Cl         3.49680       -4.10420       -0.25190
H          2.78950       -3.18760        1.80970
H          0.60440       -3.55570       -0.32360
H         -0.29950       -3.30750        2.42620
H         -0.77610       -2.27840        1.05200
N          1.87500       -1.26740       -2.17370
