17
TSA8_9_CCl3_Br_F
C          1.80760       -0.02640       -0.01560
C          1.11790       -1.06380       -0.52840
C          2.16540        1.28140       -0.69910
H          2.15210       -0.12240        1.01040
Br         0.82090       -2.58700        0.61410
C         -0.09590       -2.45300       -4.80410
C         -0.45000       -1.67690       -3.77470
C         -0.12680       -2.04240       -2.35580
O          0.64260       -1.04520       -1.79840
F         -0.40920       -2.08380       -6.07300
H          0.44120       -3.38320       -4.64450
H         -0.98850       -0.75310       -3.96670
H          0.42220       -3.00920       -2.31210
H         -1.07790       -2.14070       -1.78920
Cl         1.61290        1.48030       -2.38810
Cl         1.46920        2.61410        0.25290
Cl         3.93640        1.45230       -0.68840
