17
TSA8_9_NO2_H_OH
C          1.76420       -1.14710        1.75190
C          1.24150        0.29750        1.66270
N          1.48090       -1.84930        0.50490
H          2.86850       -1.12700        1.88390
H          1.59680        0.93210        2.50670
C          1.12750       -1.80030        3.00250
C         -0.40110       -1.64680        2.96550
C         -0.74560       -0.16640        2.76020
O         -0.17240        0.32470        1.55950
O          1.50080       -3.14880        3.10490
H          1.50990       -1.24660        3.89280
H         -0.84600       -2.23990        2.14070
H         -0.42330        0.44420        3.63430
H         -1.84910       -0.06760        2.69490
O          1.93970       -1.43420       -0.51670
O          0.78580       -2.96670        0.48160
H          1.24290       -3.44640        4.01640
