22
TSA8_9_CHF2_CCl3_NH2
C          2.00780       -0.24560        0.05440
C          1.59820       -0.48930        1.34340
C          1.73980       -0.89410       -1.28890
H          2.66310        0.59880       -0.10360
C          2.06140        0.42030        2.48180
C          1.44720       -4.82550        1.60010
C          1.38620       -3.63770        0.97940
C          0.27280       -2.65850        1.26020
O          0.77570       -1.49090        1.79000
N          2.49940       -5.73500        1.33250
H          0.68600       -5.10750        2.32220
H          2.15730       -3.37420        0.26350
H         -0.41310       -3.09020        2.02020
H         -0.37770       -2.45720        0.39420
F          2.94560       -1.28330       -1.84090
F          0.89370       -1.96770       -1.30900
H          1.29290       -0.12150       -1.94930
Cl         2.91730       -0.57240        3.69010
Cl         3.15400        1.77750        2.05670
Cl         0.62670        1.13400        3.26190
H          3.24350       -5.50850        0.65570
H          2.52670       -6.64240        1.82040
