23
TSA8_9_OMe_CHF2_NO2
C          1.17240        1.49900       -0.62090
C          1.62990        0.57930       -1.79040
O          2.16110        1.45550        0.39620
H          0.15550        1.18150       -0.27730
C          1.48570       -0.91210       -1.48570
C          1.05260        2.92190       -1.18800
C          0.02330        2.94850       -2.33990
C         -0.12700        1.56510       -2.99690
O          1.12060        0.91170       -3.08500
N          0.70590        3.89110       -0.16550
H          2.04690        3.18210       -1.61870
H         -0.99380        3.25740       -2.01450
H         -0.56580        1.68700       -4.00870
H         -0.84200        0.93120       -2.42440
C          1.58330        1.18670        1.65420
H          0.92800        2.02290        1.97880
H          2.39850        1.09800        2.40100
H          1.03830        0.21660        1.65220
F          0.15070       -1.25790       -1.37980
F          2.06680       -1.65010       -2.50010
H          2.00030       -1.15460       -0.53270
O         -0.32670        3.80290        0.42960
O          1.53230        4.87540        0.11400
