15
TSA8_9_F_OH_F
C          1.42950       -1.52420       -1.45790
C          1.26150       -1.41440        0.03450
F          0.94190       -0.37420       -2.05540
H          2.52070       -1.58100       -1.66570
O          2.34760       -1.48600        0.83300
C          0.79820       -2.77150       -2.11830
C         -0.70710       -2.86350       -2.02790
C         -1.35360       -3.17560       -0.90090
O          0.16340       -1.19980        0.52390
F          1.13450       -2.73320       -3.46130
H          1.24330       -3.69820       -1.69530
H         -1.29290       -2.71700       -2.93100
H         -0.81970       -3.38250        0.01960
H         -2.43610       -3.25020       -0.90080
H          2.27380       -1.39650        1.79380
