25
TSA8_9_CHF2_Et_NO2
C          2.68220       -1.37110       -0.23540
C          1.36680       -1.52110        0.51210
C          2.65930       -0.03880       -1.02470
H          3.48820       -1.27060        0.52340
C          1.32320       -1.50360        2.02030
C          2.98600       -2.67630       -1.04630
C          2.04570       -2.89400       -2.21510
C          1.21390       -3.93780       -2.27910
O          0.32010       -1.63540       -0.10950
N          4.36020       -2.72730       -1.51670
H          2.86290       -3.51360       -0.31970
H          2.05100       -2.18850       -3.03970
H          1.17260       -4.67570       -1.48470
H          0.56320       -4.05660       -3.13960
F          3.88010        0.24350       -1.60230
F          1.67440       -0.02740       -1.99600
H          2.44180        0.78830       -0.31480
C          2.10340       -2.66720        2.62950
H          0.26800       -1.57610        2.36410
H          1.74280       -0.54180        2.38510
H          1.68100       -3.63490        2.28520
H          2.03080       -2.61990        3.73660
H          3.17700       -2.62080        2.35310
O          4.74670       -1.98970       -2.37240
O          5.17100       -3.65700       -1.05870
