25
TSA8_9_CHF2_Et_NO2
C          1.76970       -0.12790        0.08620
C          1.41130       -1.34130        0.61160
C          1.94980        0.39900       -1.32260
H          1.96220        0.66500        0.80440
C          1.28690       -1.44330        2.11820
C          3.62980       -4.06200       -1.77210
C          2.90910       -2.94700       -1.56570
C          1.42280       -2.98820       -1.30580
O          1.14820       -2.51620       -0.04100
N          5.03560       -4.02150       -2.00210
H          3.13530       -5.02960       -1.75890
H          3.40670       -1.98450       -1.57060
H          1.06060       -4.03750       -1.34830
H          0.82710       -2.46360       -2.07000
F          3.26130        0.80010       -1.49140
F          1.61030       -0.44670       -2.34310
H          1.29750        1.29060       -1.42880
C          2.23980       -2.50160        2.66960
H          0.24400       -1.72940        2.37270
H          1.50620       -0.47970        2.62800
H          2.01020       -3.49790        2.23410
H          2.12570       -2.56790        3.77200
H          3.29150       -2.23440        2.43230
O          5.62790       -2.98470       -2.02420
O          5.69320       -5.14490       -2.18300
