24
TSA8_9_Me_Et_OH
C          2.58620        0.81450       -0.97150
C          1.36310        0.08160       -1.49500
C          2.44120        1.05240        0.53930
H          3.45860        0.13820       -1.11080
C          1.49350       -1.27670       -2.13770
C          2.93920        2.12500       -1.73810
C          1.94220        3.25890       -1.59360
C          0.74270        3.26960       -2.18150
O          0.24770        0.55480       -1.34180
O          4.18260        2.57310       -1.25950
H          3.05030        1.87460       -2.81990
H          2.23340        4.13490       -1.01920
H          0.41000        2.45440       -2.81110
H          0.08760        4.12540       -2.05250
H          1.58470        1.72730        0.75270
H          3.36490        1.50800        0.95430
H          2.27080        0.08660        1.06210
C          2.31280       -1.21730       -3.42490
H          0.48390       -1.67200       -2.38630
H          1.97410       -1.97610       -1.42070
H          1.82950       -0.53430       -4.15570
H          2.37300       -2.23220       -3.87120
H          3.34570       -0.86400       -3.22550
H          4.59250        3.12370       -1.97800
