24
TSA8_9_Me_Et_OH
C          1.87130       -0.03170       -0.14960
C          1.47490       -0.07410       -1.45520
C          1.97890        1.12580        0.80660
H          2.15260       -0.97220        0.31650
C          1.44250       -1.42150       -2.14230
C          3.11760        3.59580       -3.00770
C          2.60750        2.78390       -2.06920
C          1.16420        2.34350       -2.09670
O          1.08120        0.97510       -2.24270
O          4.41460        3.97520       -2.97460
H          2.49190        3.96250       -3.81550
H          3.25570        2.42880       -1.27560
H          0.65330        2.79940       -2.97140
H          0.58750        2.68630       -1.21840
H          1.69510        2.10890        0.42590
H          3.02860        1.19790        1.16000
H          1.32900        0.91990        1.68200
C          2.38200       -1.43600       -3.34520
H          0.40510       -1.62380       -2.48460
H          1.74130       -2.24810       -1.46070
H          2.08690       -0.65780       -4.08160
H          2.33540       -2.42720       -3.84290
H          3.42690       -1.24900       -3.01690
H          5.02470        3.67950       -2.28330
