24
TSA8_9_Me_Et_OH
C          2.71970        0.82720       -1.08910
C          1.35000        0.33660       -1.66860
C          2.52740        1.29560        0.36130
H          3.44970       -0.01100       -1.04810
C          1.36420       -1.12950       -2.12690
C          3.27810        1.93020       -2.01240
C          2.25740        3.06460       -2.23390
C          0.82480        2.50550       -2.27060
O          0.83480        1.16490       -2.71000
O          4.53320        2.41140       -1.60180
H          3.42050        1.45470       -3.00740
H          2.29310        3.86530       -1.46380
H          0.20340        3.13000       -2.94470
H          0.33890        2.57360       -1.26970
H          1.82660        2.15130        0.43280
H          3.49890        1.59840        0.80410
H          2.12400        0.46080        0.97320
C          2.25930       -1.36400       -3.34570
H          0.32570       -1.42420       -2.38970
H          1.70140       -1.77510       -1.28770
H          1.91690       -0.74700       -4.20320
H          2.21050       -2.43350       -3.63930
H          3.31610       -1.11420       -3.11900
H          4.39020        3.00790       -0.82230
