14
TSA8_9_H_H_H
C          1.61580       -1.78380        1.41630
C          1.08510       -0.35380        1.56600
H          1.21930       -2.21590        0.47170
H          2.72530       -1.78200        1.36760
H          1.52460        0.17400        2.44280
C          1.13510       -2.61640        2.60520
C         -0.38650       -2.51420        2.70380
C         -0.78220       -1.03220        2.76470
O         -0.33190       -0.33930        1.61200
H          1.44590       -3.67620        2.49050
H          1.58530       -2.21880        3.54140
H         -0.85360       -2.98130        1.80890
H         -0.39680       -0.55230        3.69290
H         -1.88940       -0.96690        2.80710
