20
TSA8_9_F_I_Et
C          3.43580        0.23880        1.55870
C          2.00480        0.61120        1.27280
F          3.92910       -0.47840        0.48260
H          4.01630        1.18140        1.65320
I          1.43600        2.64210        1.17040
C          3.57790       -0.55530        2.88190
C          2.89090       -1.90340        2.79600
C          1.87140       -2.23220        3.59580
O          1.16130       -0.25060        1.08130
C          5.05310       -0.71940        3.32830
H          3.09650        0.05870        3.67790
H          3.22940       -2.62890        2.06270
H          1.49610       -1.54030        4.34330
H          1.40380       -3.20700        3.50320
C          5.94690       -1.54500        2.39710
H          5.06120       -1.20680        4.32800
H          5.50740        0.28860        3.44530
H          5.55980       -2.57820        2.28430
H          6.96530       -1.60760        2.83530
H          6.04240       -1.06970        1.40140
