17
TSA8_9_F_Me_Cl
C          2.28730       -0.07660        0.52840
C          1.46630       -0.61940        1.45350
F          2.89000       -0.80980       -0.44200
H          2.47130        0.99360        0.52200
C          0.80920        0.26840        2.47310
C          2.85100       -3.19750        3.55110
C          3.12940       -3.06260        2.24750
C          2.02060       -3.01030        1.23310
O          1.17810       -1.94940        1.52010
Cl         4.13660       -3.25510        4.74260
H          1.82020       -3.26920        3.89170
H          4.16020       -2.99130        1.91920
H          1.44030       -3.95220        1.30130
H          2.42170       -2.95160        0.20320
H          1.12900       -0.05640        3.48500
H         -0.29240        0.17470        2.39990
H          1.08510        1.33710        2.34640
