21
TSA8_9_OMe_H_CCl3
C          1.46890        0.04100       -0.19510
C          0.98940        0.34130        1.01260
O          1.68990       -1.25110       -0.53050
H          1.65160        0.83830       -0.91180
H          0.78120        1.37810        1.26380
C         -1.25810       -2.47150        3.92710
C         -1.11850       -1.54140        2.96630
C         -0.03990       -0.49930        3.02350
O          0.74530       -0.64960        1.90120
C         -2.29340       -3.57370        3.91100
H         -0.58370       -2.44890        4.77940
H         -1.77320       -1.52290        2.10290
H          0.59310       -0.62020        3.92870
H         -0.51140        0.50830        3.05980
C          2.05280       -1.63080       -1.80160
H          2.16530       -2.73400       -1.83230
H          3.01700       -1.15850       -2.08380
H          1.26210       -1.33470       -2.52450
Cl        -1.44920       -5.13720        4.01350
Cl        -3.34170       -3.40020        5.33730
Cl        -3.33250       -3.60600        2.45400
