21
TSA8_9_OMe_H_CCl3
C          0.18850       -1.47380        0.94530
C          0.67380       -0.00320        1.00020
O          1.22780       -2.34220        0.52860
H         -0.66820       -1.48980        0.23070
H         -0.15890        0.71090        0.79810
C         -0.31220       -1.93570        2.34800
C         -0.89630       -0.71950        3.07130
C          0.26260        0.28830        3.28770
O          1.24890        0.29850        2.25240
C         -1.29170       -3.13940        2.30740
H          0.57170       -2.25020        2.95150
H         -1.69760       -0.27770        2.43850
H          0.78730       -0.04190        4.20870
H         -0.13410        1.30780        3.47600
C          1.46610       -2.20880       -0.85780
H          2.14840       -3.02470       -1.17290
H          1.97270       -1.24510       -1.07990
H          0.53810       -2.33000       -1.45900
Cl        -0.53180       -4.56520        1.54780
Cl        -1.74480       -3.60880        3.96960
Cl        -2.79360       -2.76050        1.41490
