26
TSA8_9_CF3_Et_CHF2
C          1.59780       -0.08690       -0.12040
C          1.34360       -0.49610       -1.39420
C          1.89240        1.30310        0.39670
H          1.56150       -0.83600        0.66630
C          0.95510       -1.93970       -1.62980
C          4.05690        1.44120       -4.66900
C          3.03550        0.75340       -4.14070
C          2.43130        1.16490       -2.83110
O          1.40250        0.30040       -2.50030
C          4.68210        1.03340       -5.96880
H          4.45070        2.31090       -4.14980
H          2.64490       -0.11590       -4.66230
H          2.02790        2.19470       -2.93320
H          3.23720        1.14210       -2.06490
F          3.18550        1.34350        0.88230
F          1.72070        2.30000       -0.53780
F          1.02220        1.56820        1.43700
C          1.94840       -2.63410       -2.55600
H         -0.05450       -1.96820       -2.09210
H          0.90890       -2.51380       -0.67840
H          1.97630       -2.13180       -3.54470
H          1.63690       -3.68860       -2.71080
H          2.96490       -2.62230       -2.10870
F          5.19930       -0.24530       -5.86200
F          3.73940        1.06690       -6.97970
H          5.50580        1.73400       -6.21990
