26
TSA8_9_CF3_Et_CHF2
C          2.98330        0.01540       -2.31380
C          1.50440       -0.30680       -2.67470
C          3.19040        0.35890       -0.81800
H          3.58160       -0.89180       -2.54180
C          0.84780       -1.53070       -2.01770
C          3.48020        1.18680       -3.23460
C          2.38090        1.62350       -4.21990
C          1.08460        1.88790       -3.41990
O          0.68910        0.84020       -2.53090
C          4.76390        0.82180       -4.00410
H          3.70330        2.08430       -2.61470
H          2.18680        0.81360       -4.95780
H          0.25900        2.10240       -4.12990
H          1.25410        2.79600       -2.80430
F          4.52160        0.64950       -0.58050
F          2.42810        1.45870       -0.46070
F          2.83910       -0.70680       -0.01220
C          1.61740       -2.82390       -2.28630
H         -0.16640       -1.64370       -2.45650
H          0.72550       -1.37920       -0.92620
H          1.72760       -2.98650       -3.38010
H          1.06310       -3.68270       -1.85320
H          2.62130       -2.79890       -1.81530
F          5.78290        0.51160       -3.12310
F          4.53920       -0.26460       -4.83490
H          5.08750        1.68180       -4.62840
