17
TSA8_9_CF3_Br_I
C          1.60650       -1.03050        1.38060
C          0.79500        0.19270        1.01100
C          1.73660       -1.96430        0.15090
H          2.63170       -0.68200        1.63380
Br         1.60130        1.92630        1.05440
C          1.03480       -1.68580        2.67270
C         -0.35120       -2.26280        2.50830
C         -1.39820       -1.78990        3.19210
O         -0.37600        0.09320        0.67800
I          2.31330       -3.21270        3.47550
H          1.02260       -0.89600        3.45720
H         -0.50890       -3.09080        1.82590
H         -1.28950       -0.96560        3.89030
H         -2.37990       -2.23100        3.05350
F          2.54220       -3.05010        0.43300
F          0.50220       -2.42160       -0.27390
F          2.31970       -1.26520       -0.89200
