17
TSA8_9_CF3_Br_I
C          1.79880       -0.06660       -0.00080
C          1.04740       -0.03790        1.11390
C          2.26520       -1.31540       -0.70920
H          2.09840        0.87980       -0.44180
Br         0.56650        1.68420        1.83120
C         -0.08070       -3.10270        4.43170
C         -0.40060       -2.66560        3.20990
C         -0.20190       -1.23480        2.80270
O          0.64120       -1.18650        1.71370
I         -0.37700       -5.12280        4.96200
H          0.33510       -2.42930        5.17600
H         -0.81750       -3.36020        2.48610
H          0.23150       -0.64460        3.64020
H         -1.18820       -0.80160        2.52880
F          3.64630       -1.31640       -0.75190
F          1.84090       -2.47760       -0.09030
F          1.77810       -1.30180       -2.00260
