17
TSA8_9_CF3_Br_I
C          1.60280       -1.17120        1.40420
C          0.62530        0.02010        1.33950
C          1.54330       -1.95200        0.06550
H          2.64110       -0.78260        1.48850
Br         1.00290        1.44780        2.61780
C          1.27530       -1.98360        2.68450
C         -0.20720       -2.35070        2.73010
C         -1.04410       -1.07540        2.55970
O         -0.73460       -0.39400        1.35240
I          2.50050       -3.71360        3.01630
H          1.47330       -1.33060        3.56250
H         -0.45990       -3.08910        1.94370
H         -0.92200       -0.40530        3.43790
H         -2.11530       -1.36430        2.53890
F          2.45670       -2.98800        0.05720
F          0.28500       -2.46400       -0.19030
F          1.87360       -1.09450       -0.96970
