26
TSA8_9_Me_Me_Et
C          2.59180        0.74270       -1.11220
C          1.37100       -0.16310       -1.07720
C          2.59990        1.50610        0.22900
H          3.49420        0.09450       -1.17750
C          1.53860       -1.65250       -1.12690
C          2.56160        1.68100       -2.36910
C          2.13440        0.88920       -3.59410
C          1.01960        1.17810       -4.27370
O          0.24800        0.31690       -1.01110
C          3.91790        2.33560       -2.76350
H          1.80960        2.48130       -2.18250
H          2.75180        0.05970       -3.92850
H          0.74680        0.58920       -5.14310
H          0.37370        1.99760       -3.97390
H          1.69620        2.14780        0.31560
H          3.47570        2.14550        0.38620
H          2.59430        0.78110        1.07150
H          2.05980       -1.93780       -2.06480
H          0.55230       -2.16190       -1.09510
H          2.14340       -1.98670       -0.25800
C          4.58540        3.25110       -1.74440
H          3.72480        2.96060       -3.66480
H          4.65360        1.55030       -3.04740
H          3.87850        4.03070       -1.39090
H          5.45370        3.74990       -2.22490
H          5.00740        2.66860       -0.90610
