23
TSA8_9_Et_H_CBr3
C          2.06760        0.15120        0.05170
C          2.08220        1.21170        0.87040
C          1.70990       -1.23870        0.51180
H          2.37360        0.28840       -0.98160
H          2.41000        2.16570        0.47440
C          2.32060        4.02580        3.97020
C          2.69800        3.12430        3.05260
C          2.43800        1.64870        3.22150
O          1.73280        1.09070        2.17460
C          2.65610        5.48670        3.82020
H          1.78070        3.69710        4.85320
H          3.25680        3.45410        2.18090
H          1.89030        1.44060        4.16550
H          3.42380        1.14030        3.28660
C          2.94180       -2.13420        0.39970
H          0.88850       -1.63710       -0.11660
H          1.37490       -1.24650        1.57090
H          3.29750       -2.17820       -0.65260
H          2.69030       -3.16050        0.73570
H          3.76020       -1.73890        1.04370
Br         1.99000        6.48090        5.34440
Br         4.58000        5.72950        3.73930
Br         1.85350        6.21800        2.21110
