22
TSA8_9_CF3_Me_NO2
C          1.93390       -0.08680       -0.12670
C          1.53420       -1.11950       -0.93260
C          1.97850        1.42030       -0.27720
H          2.29740       -0.36950        0.85830
C          1.61590       -2.51530       -0.36890
C          2.90530        0.02890       -4.84460
C          2.43660        0.25180       -3.60370
C          1.03110       -0.12730       -3.20570
O          1.05540       -1.08290       -2.21410
N          4.23340        0.36980       -5.22730
H          2.25720       -0.43070       -5.58640
H          3.08410        0.70460       -2.86100
H          0.50530       -0.57440       -4.07690
H          0.40250        0.73110       -2.91950
F          3.29110        1.83390       -0.14620
F          1.48660        1.92820       -1.44730
F          1.24350        1.97440        0.75380
H          2.28650       -3.12740       -1.00800
H          0.60350       -2.97110       -0.37320
H          2.00520       -2.55250        0.67120
O          4.98960        0.87380       -4.45200
O          4.63760        0.11870       -6.45320
