22
TSA8_9_CF3_Me_NO2
C          2.64370       -0.23940       -1.69870
C          1.29300       -0.99500       -1.43340
C          2.57920        1.14830       -0.99720
H          3.48500       -0.79070       -1.22120
C          1.51170       -2.29660       -0.66640
C          2.89000       -0.24490       -3.23820
C          1.69470        0.37830       -3.97520
C          0.36650       -0.07940       -3.34440
O          0.55260       -1.27710       -2.61960
N          4.14980        0.31770       -3.69920
H          2.90330       -1.31830       -3.53660
H          1.71710        1.48760       -4.03380
H         -0.38250       -0.22980       -4.14860
H         -0.06950        0.70090       -2.68160
F          3.77130        1.83470       -1.09740
F          1.57910        1.94820       -1.51290
F          2.32490        0.95860        0.35020
H          2.13070       -2.99550       -1.26870
H          0.53240       -2.77350       -0.45260
H          2.02240       -2.09040        0.29770
O          4.98310        0.69360       -2.93270
O          4.43830        0.27650       -4.98230
