14
TSA8_9_F_F_I
C          1.53600       -2.28540       -0.14780
C          0.94190       -0.92100       -0.37800
F          2.72140       -2.39640       -0.85410
H          1.77760       -2.37230        0.93270
F          0.76020       -0.08090        0.67420
C          0.58960       -3.44430       -0.53450
C         -0.73350       -3.37500        0.19150
C         -0.81750       -3.41830        1.52500
O          0.63540       -0.55070       -1.49990
I          0.24410       -3.53120       -2.65860
H          1.08640       -4.40350       -0.27260
H         -1.65200       -3.29540       -0.38220
H          0.07000       -3.50510        2.14310
H         -1.78800       -3.36860        2.00800
