14
TSA8_9_F_F_I
C          1.42210       -2.14620       -0.62500
C          1.08580       -1.30280        0.61180
F          0.88530       -1.53040       -1.74390
H          2.52330       -2.21160       -0.75410
F          1.73540       -1.76100        1.74890
C          0.82150       -3.54530       -0.45270
C         -0.67330       -3.41830       -0.16050
C         -0.86550       -2.50040        1.05400
O         -0.31590       -1.21310        0.81840
I          1.14850       -4.75470       -2.18800
H          1.31110       -4.05250        0.40770
H         -1.19820       -2.97960       -1.03750
H         -0.43300       -2.95670        1.97250
H         -1.95440       -2.39070        1.23800
