17
TSA8_9_H_CF3_Cl
C          1.82430        1.47430       -1.49600
C          0.81550        0.87690       -2.44470
H          1.32680        1.59280       -0.51030
H          2.68530        0.78200       -1.36620
C          1.05980       -0.46290       -3.08310
C          2.34120        2.83860       -1.99260
C          3.30280        3.45400       -1.00510
C          2.92840        3.79000        0.23380
O         -0.21830        1.48420       -2.68360
Cl         3.16950        2.64870       -3.56760
H          1.48840        3.53810       -2.13360
H          4.32970        3.64640       -1.30380
H          1.91120        3.63020        0.57730
H          3.64560        4.23680        0.91470
F         -0.00050       -0.81160       -3.90200
F          2.21420       -0.41580       -3.84180
F          1.20100       -1.42460       -2.09980
