20
TSA8_9_CCl3_CHF2_H
C          0.88480       -1.01150        0.35450
C          1.75540       -2.23030       -0.14470
C          1.51220        0.40590        0.20340
H         -0.01060       -0.99330       -0.30600
C          3.22310       -2.25260        0.30190
C          0.39190       -1.31110        1.78180
C         -0.31760       -2.67360        1.84070
C         -0.14450       -3.48590        0.54890
O          1.20570       -3.52280        0.13830
H          1.26420       -1.33090        2.46730
H         -0.30520       -0.53480        2.15910
H          0.04600       -3.23100        2.73160
H         -0.77780       -3.08020       -0.26970
H         -0.50590       -4.52010        0.72630
Cl         2.09900        0.65040       -1.46470
Cl         0.26820        1.65300        0.50190
Cl         2.84800        0.73830        1.34650
F          3.32330       -2.38750        1.67360
F          3.86270       -3.32350       -0.29460
H          3.75030       -1.33820       -0.02750
