19
TSA8_9_CH2F_H_NO2
C          1.61440        1.51760        1.46460
C          1.24620        1.35630        0.00700
C          1.34410        0.18540        2.19450
H          2.71180        1.69850        1.49670
H          2.01600        1.44330       -0.75280
C          0.91230        2.78230        2.05930
C         -0.60010        2.67900        2.05010
C         -1.36240        3.51790        1.34080
O          0.09840        1.11390       -0.33340
N          1.36730        3.09340        3.40500
H          1.22080        3.62940        1.40250
H         -1.08440        1.90550        2.63820
H         -0.92240        4.30790        0.73990
H         -2.44250        3.41610        1.35860
F          1.87410        0.18230        3.46950
H          1.84460       -0.63970        1.64280
H          0.25860       -0.04140        2.23670
O          1.07080        2.39990        4.33090
O          2.02000        4.21390        3.62740
