20
TSA8_9_CN_NO2_Me
C          1.65300       -0.01560        0.07160
C          1.49700       -0.63640        1.27520
C          1.84730       -0.63510       -1.21650
H          1.65540        1.07410        0.05480
N          1.55100        0.17170        2.43110
C          3.40020       -3.98610        1.38560
C          2.67110       -3.46070        0.38770
C          1.26670       -3.01170        0.59440
O          1.29960       -1.97370        1.49010
C          4.78460       -4.49610        1.12070
H          2.98570       -4.08550        2.38870
H          3.09440       -3.36160       -0.59890
H          0.66350       -3.86620        0.99530
H          0.76870       -2.71450       -0.35030
N          2.00490       -1.09810       -2.26580
O          2.01440       -0.26910        3.43980
O          1.04600        1.38320        2.41890
H          5.44980       -3.68540        0.75710
H          4.73070       -5.29420        0.34960
H          5.21680       -4.93740        2.04270
