20
TSA8_9_CH2F_I_CH2F
C          1.43980        0.05560       -2.33780
C          1.33620       -0.98000       -1.23990
C          1.40490        1.46970       -1.72590
H          2.43390       -0.07190       -2.81980
I          2.92260       -2.33190       -0.90370
C          0.36030       -0.19210       -3.43660
C         -1.05220       -0.04000       -2.90880
C         -1.91750       -1.05910       -2.90070
O          0.34610       -1.04340       -0.52730
C          0.54950        0.73100       -4.65080
H          0.51290       -1.23330       -3.80430
H         -1.37900        0.92360       -2.52950
H         -1.63600       -2.03950       -3.27190
H         -2.92220       -0.91360       -2.51730
F          2.42710        1.60970       -0.80300
H          0.43930        1.66100       -1.21310
H          1.55140        2.24140       -2.50760
F         -0.34720        0.39090       -5.64880
H          1.57810        0.62020       -5.05480
H          0.38390        1.79470       -4.38180
