20
TSA8_9_CH2F_I_CH2F
C          1.90540       -0.06910       -0.04960
C          1.20010       -0.82000       -0.90960
C          2.10830        1.41090       -0.21420
H          2.34990       -0.54300        0.82010
I          1.00970       -2.89800       -0.48700
C         -0.37820       -0.25250       -5.26630
C         -0.62450        0.00500       -3.97310
C         -0.19160       -0.93140       -2.88310
O          0.63090       -0.25710       -2.00650
C         -0.81780        0.69200       -6.34300
H          0.14700       -1.15910       -5.55420
H         -1.15460        0.91170       -3.69410
H          0.34600       -1.80910       -3.30580
H         -1.09540       -1.28660       -2.34350
F          3.46130        1.68080       -0.29150
H          1.68540        1.93230        0.66990
H          1.61240        1.81020       -1.12310
F         -2.19320        0.83830       -6.31280
H         -0.51970        0.29170       -7.33500
H         -0.33750        1.68220       -6.19690
