21
TSA8_9_Br_CF3_OMe
C          3.08630       -1.30830       -2.17400
C          1.57730       -1.61100       -2.03250
Br         3.57940        0.28590       -1.14660
H          3.72380       -2.12330       -1.76790
C          1.16710       -2.09570       -0.63830
C          3.40700       -1.12620       -3.67740
C          2.18120       -0.58340       -4.45080
C          1.26650        0.23640       -3.53400
O          0.76380       -0.50110       -2.41710
O          3.76550       -2.38710       -4.22010
H          4.26730       -0.41720       -3.71970
H          1.55790       -1.43810       -4.79830
H          0.40270        0.57710       -4.14230
H          1.79850        1.14320       -3.17970
F         -0.16850       -2.45310       -0.65990
F          1.91350       -3.20440       -0.28310
F          1.34410       -1.10310        0.30790
C          4.55310       -2.22150       -5.38010
H          5.51040       -1.70310       -5.15170
H          3.98740       -1.69910       -6.18250
H          4.81590       -3.22660       -5.76870
