16
TSA8_9_Cl_NH2_I
C          1.49330       -1.18670        1.60190
C          1.05170        0.24090        1.36200
Cl         1.04110       -2.18880        0.18780
H          2.60160       -1.21290        1.68190
N          1.95870        1.24470        1.31230
C          0.92540       -1.75110        2.92320
C         -0.58170       -1.83880        2.92180
C         -1.32900       -1.16500        3.80130
O         -0.13380        0.49490        1.20380
I          1.71700       -3.70480        3.32050
H          1.27640       -1.09870        3.75370
H         -1.07560       -2.46740        2.18690
H         -0.87520       -0.52540        4.55210
H         -2.41020       -1.25090        3.77180
H          1.65400        2.21530        1.14610
H          2.96420        1.05910        1.44050
