20
TSA8_9_CBr3_Br_Me
C          1.76660       -1.88490        0.57560
C          3.12260       -2.07040        1.25380
C          1.93010       -1.41770       -0.91770
H          1.30440       -1.00940        1.08750
Br         4.46240       -3.32140        0.67940
C          0.80090       -3.08150        0.93200
C         -0.62160       -2.84290        0.47980
C         -1.62150       -2.63850        1.34340
O          3.41270       -1.34730        2.19480
C          1.21620       -4.47980        0.45010
H          0.80250       -3.13130        2.04570
H         -0.85430       -2.85770       -0.57830
H         -1.44820       -2.62300        2.41490
H         -2.63020       -2.48180        0.97500
Br         0.29680       -0.68380       -1.67400
Br         3.17810        0.07590       -1.00910
Br         2.59270       -2.76230       -2.15300
H          2.20150       -4.77420        0.84990
H          1.21500       -4.55620       -0.65260
H          0.49150       -5.23170        0.83150
