21
TSA8_9_OMe_Cl_CHF2
C          0.47440       -1.40000       -0.88190
C          1.28220       -1.02000        0.33980
O          1.27110       -1.27270       -2.04810
H         -0.43400       -0.75460       -0.94940
Cl         0.74720        0.29270        1.37800
C         -0.02300       -2.86590       -0.75890
C         -0.88470       -3.02180        0.47720
C         -0.54830       -3.84330        1.47590
O          2.31180       -1.61640        0.61180
C         -0.83930       -3.31170       -1.98840
H          0.86520       -3.53450       -0.68910
H         -1.80250       -2.44580        0.55850
H          0.36110       -4.43390        1.43820
H         -1.19020       -3.92620        2.34820
C          1.47750        0.08850       -2.37230
H          1.86530        0.14370       -3.40960
H          2.24210        0.53810       -1.70300
H          0.53480        0.68020       -2.36090
F         -1.95260       -2.50740       -2.16210
F         -0.06690       -3.27190       -3.13520
H         -1.17770       -4.36110       -1.84560
