21
TSA8_9_OMe_Cl_CHF2
C          1.47950        0.21180       -0.02720
C          1.04840       -0.78850        0.74260
O          1.72240       -0.00940       -1.34060
H          1.60460        1.20630        0.39430
Cl         0.68590       -0.47510        2.44140
C         -0.80870       -4.68860       -0.96400
C         -0.81580       -3.43690       -0.48410
C          0.06230       -3.01540        0.65660
O          0.88940       -2.01690        0.18930
C         -1.65700       -5.07310       -2.13760
H         -0.17170       -5.44370       -0.51220
H         -1.45530       -2.68680       -0.94220
H          0.68250       -3.86190        1.02110
H         -0.58200       -2.66530        1.49190
C          2.01970        1.00540       -2.21780
H          2.16430        0.57670       -3.23060
H          2.94990        1.52520       -1.90570
H          1.17650        1.72930       -2.25730
F         -2.99220       -4.84810       -1.85590
F         -1.28760       -4.32920       -3.24440
H         -1.50990       -6.14910       -2.36540
