18
TSA8_9_NO2_CN_CN
C          2.63190       -0.66130       -1.44550
C          1.29870       -1.32300       -0.95930
N          2.47240        0.78510       -1.30410
H          3.48850       -0.98280       -0.80420
C          1.53880       -2.25110        0.15350
C          2.88210       -1.17460       -2.90170
C          1.71220       -0.78060       -3.77930
C          0.39180       -1.16920       -3.10500
O          0.59700       -2.01050       -1.98320
C          4.12610       -0.88640       -3.62850
H          2.89010       -2.28480       -2.83020
H          1.73150        0.30860       -4.01980
H         -0.17270       -1.73400       -3.87290
H         -0.22180       -0.28360       -2.83110
O          3.10930        1.36900       -0.48190
O          1.45800        1.40730       -1.87160
N          1.70980       -2.98680        1.03240
N          5.06230       -0.72960       -4.29010
