20
TSA8_9_H_F_Et
C          2.03630        0.33400        0.14950
C          1.34480        0.98850        1.09430
H          2.65150       -0.52800        0.37440
H          1.98160        0.66230       -0.88330
F          0.58630        2.05070        0.71960
C          4.59330       -0.50250        2.46260
C          3.59660        0.18940        3.03350
C          2.17310       -0.29870        3.01910
O          1.35390        0.63570        2.41140
C          6.01130       -0.00010        2.47520
H          4.38600       -1.44900        1.97060
H          3.80390        1.13640        3.52400
H          1.84820       -0.41630        4.07370
H          2.06260       -1.28750        2.52190
C          6.50940        0.21190        1.05050
H          6.65380       -0.74890        2.98500
H          6.09170        0.96250        3.02650
H          6.47210       -0.74110        0.48050
H          7.55910        0.57310        1.07290
H          5.88230        0.97080        0.53460
