22
TSA8_9_Me_NO2_Me
C          2.85670        0.76170        1.09330
C          1.50240        1.37370        0.75300
C          2.86420       -0.72200        0.68220
H          3.64230        1.26550        0.49140
N          1.38400        2.38960       -0.14950
C          3.21460        1.00720        2.59170
C          2.28860        0.27600        3.54260
C          1.50860        0.92260        4.41400
O          0.49860        0.93620        1.30140
C          4.66440        0.61350        2.90700
H          3.14510        2.10570        2.76550
H          2.25910       -0.80940        3.52640
H          1.50510        2.00640        4.47060
H          0.86280        0.36080        5.08100
H          2.09410       -1.29970        1.23500
H          3.85640       -1.18320        0.85950
H          2.64500       -0.81010       -0.40340
O          0.30960        2.84730       -0.39940
O          2.44280        2.87900       -0.76030
H          5.36380        1.16540        2.24330
H          4.83100       -0.47600        2.78170
H          4.90730        0.88000        3.95830
