20
TSA8_9_NH2_CN_CH2F
C          2.66940        1.47140        0.41850
C          1.69770        1.18300       -0.70810
N          2.47440        0.51600        1.51560
H          3.69480        1.32510        0.00910
C          2.19360        0.69180       -1.97190
C          2.55430        2.94710        0.90100
C          1.31620        3.16030        1.75030
C          0.27720        3.89360        1.34860
O          0.49370        1.29110       -0.54030
C          3.79860        3.38590        1.69150
H          2.52120        3.59120       -0.00770
H          1.26440        2.68670        2.72760
H          0.26720        4.37080        0.37550
H         -0.58510        3.99830        2.00030
H          1.47990        0.53850        1.84190
H          2.64670       -0.45090        1.15590
N          2.59080        0.28730       -2.98000
F          3.95870        2.63230        2.84120
H          3.71310        4.45830        1.97120
H          4.70710        3.27450        1.06040
