20
TSA8_9_NH2_CN_CH2F
C          2.65290        1.56070        0.36890
C          1.41510        1.44740       -0.57920
N          2.44800        0.69540        1.53620
H          3.58540        1.22820       -0.14260
C          1.77460        0.88480       -1.88680
C          2.82670        3.05020        0.76190
C          1.51780        3.57950        1.35740
C          0.32370        3.18520        0.47110
O          0.75410        2.68670       -0.78060
C          4.02390        3.39600        1.65510
H          3.00160        3.59910       -0.19080
H          1.34150        3.21140        2.39370
H         -0.28330        4.10000        0.31160
H         -0.33800        2.44560        0.97740
H          1.51680        0.88680        1.97390
H          2.42870       -0.30170        1.21620
N          2.05330        0.44140       -2.91930
F          3.91130        2.82720        2.90990
H          4.06640        4.50290        1.76930
H          4.97360        3.07110        1.18070
