23
TSA8_9_CCl3_CCl3_CCl3
C          2.69430       -1.04600       -1.60550
C          1.43580       -1.90550       -1.40870
C          2.47430        0.42020       -1.06150
H          3.49590       -1.47660       -0.96910
C          1.36720       -3.09610       -0.44320
C          3.24340       -1.04380       -3.09950
C          2.26290       -0.43170       -4.08690
C          2.53990        0.69120       -4.75930
O          0.43040       -1.61350       -2.03920
C          3.73630       -2.41260       -3.65820
H          4.16240       -0.42070       -3.08580
H          1.31020       -0.91660       -4.27040
H          1.81640        1.09500       -5.45980
H          3.48000        1.21530       -4.61810
Cl         1.13850        1.30950       -1.85240
Cl         2.10080        0.43610        0.67880
Cl         3.95640        1.40710       -1.22310
Cl         2.57070       -4.35150       -0.80360
Cl         1.63120       -2.60700        1.24510
Cl        -0.23810       -3.88210       -0.50610
Cl         4.52090       -2.16990       -5.24780
Cl         4.99050       -3.12550       -2.60660
Cl         2.41940       -3.59270       -3.92220
