23
TSA8_9_CCl3_CCl3_CCl3
C          1.57490        0.01090       -0.01560
C          1.46840       -1.10820       -0.78930
C          1.75000        1.43940       -0.50240
H          1.47960       -0.08980        1.05660
C          1.21880       -2.48680       -0.18970
C          3.92790       -1.78830       -4.72820
C          2.90460       -1.88070       -3.86170
C          2.62650       -0.75950       -2.90550
O          1.51150       -1.05290       -2.14770
C          4.31650       -2.85240       -5.72830
H          4.53110       -0.88300       -4.72060
H          2.26700       -2.75720       -3.83230
H          2.43320        0.17020       -3.48160
H          3.52480       -0.63660       -2.26360
Cl         0.50650        1.86840       -1.70700
Cl         1.56080        2.55180        0.87830
Cl         3.37300        1.75110       -1.16600
Cl         2.52860       -3.58490       -0.69430
Cl         1.12460       -2.56020        1.59700
Cl        -0.31890       -3.11790       -0.82920
Cl         4.19960       -2.16730       -7.36620
Cl         6.00740       -3.31820       -5.42840
Cl         3.31530       -4.33450       -5.67020
