19
TSA8_9_CHF2_I_NH2
C          1.57670       -1.23610        1.59400
C          0.86700        0.04890        1.22780
C          1.64340       -2.16180        0.35790
H          2.62720       -0.96990        1.84510
I          1.89900        1.88970        1.29560
C          0.95500       -1.85850        2.88400
C         -0.51240       -2.22060        2.74360
C         -1.45760       -1.63130        3.48370
O         -0.30450        0.04430        0.88170
N          1.71500       -3.02910        3.32900
H          1.06070       -1.07990        3.67470
H         -0.81250       -2.98220        2.03190
H         -1.20750       -0.86620        4.21220
H         -2.49780       -1.91480        3.36170
F          2.43380       -3.26940        0.60070
F          0.38760       -2.57180       -0.05000
H          2.11300       -1.60540       -0.48180
H          1.52480       -3.84690        2.70640
H          1.39690       -3.29570        4.28940
