19
TSA8_9_CHF2_I_NH2
C          1.56670       -1.48780        1.78730
C          0.94970       -0.09020        1.57690
C          1.50890       -2.26480        0.45310
H          2.64210       -1.37380        2.04530
I          1.50710        1.39020        3.04350
C          0.82140       -2.15870        2.97130
C         -0.69340       -2.14130        2.72200
C         -1.13490       -0.70030        2.44000
O         -0.44780       -0.14780        1.32710
N          1.30100       -3.51440        3.24520
H          1.01810       -1.54410        3.87830
H         -0.96020       -2.78870        1.86000
H         -1.01070       -0.06540        3.34350
H         -2.22120       -0.70890        2.21480
F          2.16320       -1.54200       -0.52970
F          2.14110       -3.48900        0.56640
H          0.46370       -2.42600        0.11960
H          0.96560       -4.17660        2.50970
H          0.89530       -3.83790        4.15340
