24
TSA8_9_NH2_Et_NO2
C          2.97870        1.29340        0.52290
C          1.52690        1.50970        0.13130
N          3.28740       -0.13940        0.57910
H          3.62270        1.74320       -0.26430
C          1.16410        2.23390       -1.14060
C          3.33000        2.01520        1.85380
C          2.58470        1.44750        3.04570
C          1.73110        2.18080        3.76650
O          0.63290        1.07370        0.84200
N          4.75890        1.95100        2.10620
H          3.05140        3.08660        1.72140
H          2.75020        0.41380        3.33360
H          1.53320        3.21940        3.52120
H          1.22060        1.73670        4.61500
H          2.64940       -0.62980        1.24630
H          3.14300       -0.55860       -0.36860
C          1.65040        3.68190       -1.12820
H          0.05880        2.24020       -1.26440
H          1.60860        1.69740       -2.00590
H          1.19840        4.23110       -0.27510
H          1.34910        4.18060       -2.07340
H          2.75590        3.73370       -1.04800
O          5.30190        0.90190        2.28180
O          5.46510        3.06030        2.15370
