24
TSA8_9_NH2_Et_NO2
C          1.93310        0.25280       -0.09500
C          1.41480        1.49040        0.15590
N          2.31260       -0.72790        0.85940
H          2.06950       -0.03680       -1.13360
C          1.06580        2.36460       -1.02690
C          3.70100        2.94950        2.52030
C          3.05000        1.80410        2.79230
C          1.55290        1.72420        2.65810
O          1.16420        2.05680        1.37680
N          5.11450        3.06950        2.62950
H          3.13070        3.81920        2.20270
H          3.59620        0.92260        3.11290
H          1.10780        2.46590        3.35430
H          1.13580        0.74560        2.96150
H          2.23510       -0.62280        1.87030
H          2.68370       -1.62570        0.51720
C          1.89410        3.64730       -1.00140
H         -0.01440        2.62040       -0.98130
H          1.25330        1.85350       -1.99670
H          1.70140        4.22020       -0.06940
H          1.62450        4.28470       -1.86940
H          2.97700        3.40370       -1.05980
O          5.78820        2.14320        2.96910
O          5.68980        4.21760        2.34580
