24
TSA8_9_NH2_Et_NO2
C          2.93900        1.24910        0.63940
C          1.41080        1.57200        0.50050
N          3.13820       -0.16770        0.96260
H          3.46550        1.43420       -0.32290
C          1.05040        2.22880       -0.84220
C          3.54170        2.17360        1.71740
C          2.78120        2.03730        3.05010
C          1.27880        1.80760        2.80450
O          0.89160        2.36570        1.56830
N          4.96750        1.97360        1.89360
H          3.37060        3.21480        1.36330
H          3.15190        1.21970        3.70530
H          0.69900        2.26370        3.63290
H          1.02090        0.72430        2.82650
H          2.66710       -0.43540        1.85400
H          2.74130       -0.75490        0.19370
C          1.66340        3.62120       -1.01310
H         -0.05530        2.32020       -0.90070
H          1.38380        1.57350       -1.67520
H          1.32410        4.29830       -0.20080
H          1.34380        4.04940       -1.98600
H          2.77170        3.57330       -1.00610
O          5.39300        0.92840        2.28420
O          5.80450        2.95340        1.62770
