20
TSA8_9_CF3_CBr3_Br
C          2.51790       -1.61600        0.23840
C          1.30840       -1.80440        1.15360
C          2.17800       -0.61770       -0.89680
H          3.33460       -1.15170        0.83380
C          1.30950       -1.33570        2.60240
C          3.08480       -2.95060       -0.34490
C          2.09850       -3.72080       -1.19240
C          2.31060       -3.95660       -2.49040
O          0.29070       -2.30290        0.69420
Br         3.73430       -4.14820        1.03500
H          3.97940       -2.69360       -0.95440
H          1.19230       -4.10870       -0.73940
H          1.58090       -4.51900       -3.06400
H          3.20330       -3.59470       -2.99070
F          3.29610       -0.39240       -1.68080
F          1.15930       -1.09690       -1.70180
F          1.77760        0.59380       -0.36520
Br         1.62130        0.57420        2.70630
Br        -0.39680       -1.68520        3.47070
Br         2.67260       -2.21600        3.65800
