22
TSA8_9_CF3_OH_OMe
C          2.03140       -0.18290        0.07020
C          1.60270       -1.36470        0.56470
C          1.80150        0.31790       -1.33490
H          2.59900        0.47320        0.72450
O          1.87440       -1.70160        1.84600
C          3.66810       -4.31970       -0.55310
C          2.93660       -3.27940       -0.99210
C          1.42530       -3.28370       -0.94100
O          0.89410       -2.23920       -0.19440
O          5.02910       -4.34440       -0.58900
H          3.16140       -5.19030       -0.14840
H          3.41880       -2.40020       -1.40550
H          1.03730       -4.24110       -0.53220
H          1.05590       -3.19080       -1.98300
F          3.02650        0.50920       -1.94540
F          1.05440       -0.55240       -2.10570
F          1.13830        1.52900       -1.27420
H          2.36810       -1.12380        2.44570
C          5.84450       -3.33010       -1.05050
H          6.90410       -3.64420       -0.95620
H          5.69180       -2.41080       -0.44560
H          5.63160       -3.12090       -2.12070
