22
TSA8_9_CF3_OH_OMe
C          2.73050       -1.28160        0.16240
C          1.23820       -1.60060        0.39220
C          2.88260       -0.24530       -0.97450
H          3.12890       -0.78980        1.07770
O          1.01070       -2.20050        1.63670
C          3.49370       -2.61530       -0.05060
C          2.78760       -3.49200       -1.11880
C          1.30620       -3.63350       -0.75050
O          0.67370       -2.36580       -0.66340
O          4.89730       -2.39420       -0.19680
H          3.38710       -3.19710        0.89130
H          2.85230       -3.05310       -2.13330
H          1.18250       -4.21010        0.19330
H          0.80410       -4.22640       -1.54330
F          4.20900        0.11750       -1.11850
F          2.40910       -0.72300       -2.18220
F          2.16630        0.89360       -0.64980
H          0.46440       -1.54120        2.13490
C          5.39840       -2.62700       -1.49580
H          5.38050       -3.71090       -1.74050
H          6.45930       -2.30430       -1.51900
H          4.87320       -2.01770       -2.26040
