16
TSA8_9_NH2_I_I
C          1.56440       -0.74910        1.83910
C          1.06250        0.54260        1.23350
N          1.36460       -1.85760        0.90250
H          2.65830       -0.63060        1.99860
I          2.38240        2.16390        0.94590
C          0.97400       -1.08840        3.23500
C         -0.52370       -1.29400        3.28840
C         -1.39140       -0.27960        3.22120
O         -0.08900        0.65050        0.84340
I          1.92920       -2.87320        3.96660
H          1.24470       -0.29400        3.96470
H         -0.91940       -2.29410        3.43860
H         -1.05290        0.74650        3.12220
H         -2.45700       -0.47030        3.28820
H          1.86450       -1.65650        0.00490
H          0.34770       -1.98910        0.69980
