16
TSA8_9_NH2_I_I
C          1.76700       -0.86550        1.90390
C          1.09410        0.41990        1.38190
N          1.62710       -1.94550        0.92160
H          2.85400       -0.68460        2.04950
I          1.71320        2.23300        2.36850
C          1.13700       -1.24610        3.25650
C         -0.38570       -1.30980        3.13160
C         -0.89080        0.01710        2.55090
O         -0.31700        0.28620        1.27980
I          1.91640       -3.08910        4.02310
H          1.38260       -0.45740        4.00060
H         -0.69600       -2.14950        2.47480
H         -0.70720        0.85290        3.25990
H         -1.99200       -0.05280        2.43360
H          2.15050       -1.68500        0.05400
H          0.62810       -2.09590        0.65640
