23
TSA8_9_CCl3_CF3_CF3
C          1.27890       -1.00510        2.06270
C          2.53390       -1.88780        2.18220
C          1.23500       -0.06160        0.81380
H          1.37190       -0.28410        2.90750
C          3.25200       -2.56850        1.03080
C         -0.06580       -1.76660        2.36500
C         -0.43590       -2.77990        1.30470
C         -1.54450       -2.65840        0.56660
O          3.00790       -2.03580        3.30000
C         -0.08380       -2.46070        3.74600
H         -0.86450       -0.99550        2.41850
H          0.19780       -3.64230        1.14520
H         -2.21820       -1.81680        0.69540
H         -1.78420       -3.40960       -0.17870
Cl         1.06920       -0.91780       -0.74620
Cl        -0.13750        1.07850        0.92400
Cl         2.69940        0.96150        0.75030
F          3.76930       -1.64020        0.15000
F          4.31120       -3.31890        1.51400
F          2.40630       -3.41750        0.34950
F          0.81320       -3.51350        3.79570
F          0.22590       -1.55320        4.74360
F         -1.35050       -2.96120        3.99510
