16
TSA8_9_I_NH2_F
C          1.90090        0.11650        0.14970
C          1.54500        1.12260        0.98330
I          2.26340       -1.93010        0.57580
H          1.98560        0.33220       -0.91120
N          1.28760        2.40000        0.42120
C          4.06410        1.51790        4.35560
C          3.56500        0.93850        3.25870
C          2.18940        0.32620        3.23850
O          1.39060        0.99970        2.33330
F          5.30430        2.07100        4.32790
H          3.49030        1.56050        5.27660
H          4.16250        0.91720        2.35210
H          1.71470        0.41330        4.23920
H          2.25230       -0.74970        3.02340
H          1.01840        3.18400        1.03320
H          1.38170        2.57310       -0.59030
