16
TSA8_9_I_NH2_F
C          3.06840        0.91820        1.19030
C          1.53720        1.12580        1.42040
I          3.51860       -1.11810        0.64630
H          3.41130        1.50980        0.31390
N          1.14000        2.42980        0.89970
C          3.80960        1.35550        2.45330
C          3.33940        0.53770        3.66500
C          1.87510        0.09350        3.50490
O          1.13550        1.05950        2.79360
F          5.18100        1.25930        2.30390
H          3.54950        2.42180        2.63390
H          3.94840       -0.37710        3.83180
H          1.43160       -0.06650        4.50900
H          1.79830       -0.88610        2.98500
H          0.12350        2.57050        1.09610
H          1.24930        2.41610       -0.14000
