23
TSA8_9_Br_Et_CHF2
C          2.84400       -0.40720       -2.51650
C          1.34080       -0.34480       -2.07930
Br         3.95300        0.50900       -1.19670
H          3.20250       -1.46030       -2.50350
C          0.64380       -1.68480       -2.36710
C          2.96090        0.19260       -3.93160
C          2.46420        1.65250       -3.92880
C          1.36690        1.86500       -2.87220
O          0.59430        0.69560       -2.72260
C          4.34940        0.06280       -4.57770
H          2.25950       -0.38820       -4.57130
H          3.26410        2.39780       -3.72730
H          0.72320        2.71440       -3.17890
H          1.79670        2.15610       -1.88810
C         -0.80760       -1.68180       -1.89270
H          1.18070       -2.49670       -1.83030
H          0.66860       -1.90210       -3.45740
H         -0.85480       -1.48040       -0.80140
H         -1.26440       -2.67250       -2.09520
H         -1.39440       -0.90950       -2.43360
F          5.30530        0.77610       -3.87730
F          4.72560       -1.26700       -4.63380
H          4.30930        0.45860       -5.61510
