20
TSA8_9_I_F_Et
C          1.98200        0.17450        0.22910
C          1.31190        0.56330        1.33600
I          3.14480       -1.56360       -0.15590
H          1.92180        0.82520       -0.63790
F          0.61730        1.72800        1.25170
C          3.98280       -0.62560        4.48770
C          3.43330       -0.63310        3.26310
C          2.02740       -1.12300        3.02410
O          1.24470       -0.10070        2.52700
C          5.37950       -0.11760        4.72910
H          3.41180       -0.97930        5.34180
H          4.00820       -0.26600        2.41980
H          1.57650       -1.45660        3.98310
H          2.00350       -2.00140        2.35370
C          6.42660       -0.95290        3.99520
H          5.59320       -0.16460        5.81830
H          5.44910        0.94240        4.40310
H          6.37730       -2.01050        4.33100
H          7.43890       -0.55450        4.21850
H          6.26930       -0.91090        2.89700
