20
TSA8_9_I_F_Et
C          3.27100        0.28330        1.99220
C          1.72550        0.28520        1.79800
I          4.12430       -1.12560        0.59270
H          3.67120        1.27420        1.68580
F          1.26640        1.58330        1.93450
C          3.55150        0.01720        3.48570
C          2.97500       -1.35200        3.89300
C          1.71320       -1.68850        3.07610
O          1.00230       -0.51790        2.73600
C          4.99270        0.26540        3.99790
H          2.94110        0.77580        4.02790
H          3.67850       -2.20140        3.77310
H          1.06890       -2.36870        3.67050
H          1.96250       -2.25070        2.15060
C          6.09270       -0.63450        3.43590
H          4.98480        0.13800        5.10300
H          5.26960        1.32080        3.78410
H          5.88550       -1.70480        3.63470
H          7.05470       -0.37600        3.92780
H          6.23150       -0.46540        2.35310
