21
TSA8_9_CF3_NH2_NH2
C          2.08930        0.29680        0.20180
C          1.73800        1.26480       -0.69960
C          1.66530       -0.05780        1.61300
H          2.83990       -0.40810       -0.14830
N          2.37650        1.21600       -1.96960
C          1.13910        4.79290        1.73680
C          1.15430        3.47600        1.48150
C          0.17490        2.84510        0.52110
O          0.83890        2.28620       -0.54880
N          2.06950        5.37200        2.63530
H          0.40990        5.43730        1.25400
H          1.89300        2.85140        1.97150
H         -0.49790        3.62900        0.11320
H         -0.50740        2.11810        0.99120
F          2.77920        0.00160        2.42940
F          0.68980        0.72100        2.17090
F          1.20170       -1.35990        1.60510
H          2.14870        1.92130       -2.68510
H          3.07200        0.49190       -2.20420
H          2.77950        4.79790        3.11310
H          2.04170        6.38580        2.81540
