26
TSA8_9_CH2F_Me_Et
C          1.80560       -0.16670        0.00000
C          1.43900       -1.46400       -0.21550
C          2.05340        0.95430       -0.97330
H          1.93850        0.14770        1.03170
C          1.23790       -2.35120        0.98460
C          3.85410       -2.63310       -2.55260
C          3.04590       -1.59950       -2.85530
C          1.55350       -1.73490       -2.71160
O          1.22910       -2.08580       -1.41600
C          5.36440       -2.61630       -2.62880
H          3.40250       -3.56280       -2.21580
H          3.44500       -0.65230       -3.19880
H          1.21300       -2.55000       -3.38410
H          0.99750       -0.83500       -3.03210
F          3.35090        1.40570       -0.82060
H          1.35910        1.78460       -0.72780
H          1.89920        0.72630       -2.02820
H          1.93980       -3.20940        0.92010
H          0.19820       -2.73900        0.98610
H          1.41770       -1.83010        1.94840
C          5.98460       -1.29110       -3.07130
H          5.68600       -3.41250       -3.33340
H          5.75850       -2.86250       -1.61970
H          5.64510       -1.02590       -4.09510
H          7.09040       -1.38810       -3.08180
H          5.71090       -0.48080       -2.36190
