19
TSA8_9_Me_I_NH2
C          1.51050        0.09240        2.14200
C          0.99180        0.98100        1.03340
C          1.35610       -1.38330        1.73700
H          2.59960        0.28910        2.24970
I          2.29150        2.31530        0.04170
C          0.84520        0.45030        3.50290
C         -0.66240        0.28310        3.49270
C         -1.48540        1.31780        3.69180
O         -0.17880        0.93300        0.68690
N          1.42510       -0.34090        4.59100
H          1.09530        1.51850        3.70050
H         -1.09000       -0.70020        3.32250
H         -1.10030        2.31730        3.86650
H         -2.55980        1.16780        3.67830
H          0.28860       -1.65960        1.61250
H          1.81950       -2.05260        2.49010
H          1.87910       -1.56330        0.77310
H          1.12840       -1.34100        4.51880
H          1.07320        0.02430        5.50610
