19
TSA8_9_Me_I_NH2
C          1.86200        0.04280        0.02660
C          1.16220        0.85060        0.83720
C          2.11060       -1.41050        0.31730
H          2.27300        0.44750       -0.89310
I          0.91080        2.87950        0.24260
C         -0.20960        0.57270        5.28480
C         -0.53820        0.26090        4.02310
C         -0.13030        1.12050        2.86250
O          0.63520        0.37340        1.99460
N         -0.60640       -0.25270        6.36580
H          0.36750        1.46890        5.49520
H         -1.11710       -0.63640        3.82120
H          0.45070        2.00430        3.20780
H         -1.04840        1.47190        2.34400
H          1.65360       -1.73970        1.27370
H          3.20440       -1.58990        0.36940
H          1.68370       -2.02240       -0.50420
H         -1.15530       -1.11100        6.20820
H         -0.34570        0.00510        7.32820
