19
TSA8_9_Me_I_NH2
C          1.55430       -0.04010        2.26970
C          1.10560        1.03390        1.26060
C          1.28840       -1.43290        1.67230
H          2.65270        0.03720        2.42080
I          1.97470        2.98560        1.55200
C          0.83130        0.22030        3.61460
C         -0.68340        0.32490        3.39020
C         -0.95300        1.38280        2.31320
O         -0.30490        1.06240        1.09090
N          1.15330       -0.79330        4.62120
H          1.18060        1.20510        3.99900
H         -1.10660       -0.65000        3.06850
H         -0.66030        2.39390        2.67000
H         -2.04760        1.42350        2.13270
H          1.65790       -2.22890        2.35070
H          1.83990       -1.53530        0.71360
H          0.21170       -1.59980        1.46700
H          0.72910       -1.71420        4.36530
H          0.74100       -0.50320        5.53750
