17
TSA8_9_H_Cl_CH2F
C          2.34270       -0.79050        0.10880
C          1.29170       -1.53560       -0.27030
H          3.09650       -0.45630       -0.59390
H          2.45470       -0.49740        1.14750
Cl         0.11900       -2.01920        0.94270
C          2.97670       -4.08640       -2.22040
C          3.15490       -2.76590       -2.37150
C          1.98180       -1.85280       -2.60740
O          1.08470       -1.93610       -1.55670
C          4.13090       -5.00900       -1.97700
H          1.97550       -4.50680       -2.26860
H          4.15380       -2.34090       -2.32440
H          1.47180       -2.16960       -3.54130
H          2.31900       -0.80300       -2.74730
F          5.01650       -4.94960       -3.03730
H          3.75950       -6.05040       -1.87440
H          4.65380       -4.72140       -1.04050
