23
TSA8_9_CF3_NH2_OMe
C          2.83980       -1.08120       -0.77890
C          1.41330       -1.58320       -0.59590
C          2.80610        0.47400       -0.69110
H          3.43570       -1.46350        0.07880
N          1.08220       -2.34000        0.47720
C          3.44640       -1.73370       -2.07730
C          2.96150       -1.11960       -3.37980
C          2.20070       -1.79380       -4.24840
O          0.55500       -1.30630       -1.42240
O          4.85620       -1.93760       -2.06600
H          3.07400       -2.78290       -2.04700
H          3.23400       -0.09920       -3.62750
H          1.89440       -2.81700       -4.05610
H          1.87620       -1.31570       -5.16700
F          4.05600        1.04830       -0.73010
F          2.04310        1.01600       -1.71090
F          2.23110        0.84320        0.51320
H          0.11680       -2.68000        0.59920
H          1.78400       -2.58980        1.18930
C          5.63480       -0.76930       -1.99470
H          6.63470       -1.00240       -2.41390
H          5.79840       -0.49060       -0.93380
H          5.24240        0.06310       -2.61260
