18
TSA8_9_CH2F_I_OH
C          1.64180       -0.92570       -1.53190
C          0.89190       -1.11390       -0.23290
C          1.67890        0.56950       -1.90070
H          2.69200       -1.25080       -1.36250
I          1.88050       -1.90010        1.45880
C          1.06000       -1.83020       -2.65210
C         -0.37250       -1.48860       -3.00300
C         -1.36530       -2.36950       -2.84820
O         -0.28640       -0.80650       -0.13760
O          1.85400       -1.72030       -3.80430
H          1.12670       -2.87890       -2.27280
H         -0.60470       -0.50470       -3.39820
H         -1.17830       -3.36580       -2.45910
H         -2.38100       -2.09370       -3.11200
F          2.44250        0.77790       -3.03520
H          2.13740        1.14530       -1.06810
H          0.65790        0.96950       -2.07110
H          1.66080       -2.51700       -4.36510
