18
TSA8_9_CH2F_I_OH
C          1.62670       -0.91440       -1.72120
C          0.79010       -1.34780       -0.50270
C          1.54660        0.61770       -1.87080
H          2.69520       -1.16360       -1.54090
I          1.26000       -3.30100        0.28030
C          1.12030       -1.68930       -2.95910
C         -0.39370       -1.50300       -3.10940
C         -1.07720       -1.90320       -1.79530
O         -0.60120       -1.13580       -0.69940
O          1.79170       -1.27430       -4.11900
H          1.32680       -2.77170       -2.78720
H         -0.64090       -0.44930       -3.35720
H         -0.95840       -2.99140       -1.60440
H         -2.16660       -1.72450       -1.90430
F          2.33560        1.05000       -2.92160
H          1.92320        1.09640       -0.94150
H          0.50660        0.96810       -2.02950
H          1.57400       -1.93610       -4.82630
