14
TSA8_9_Cl_F_H
C          1.70760       -0.02210        0.03930
C          2.27240       -0.70000       -0.96320
Cl         0.79380        1.45270       -0.25250
H          1.83120       -0.36590        1.06140
F          3.00340       -1.81210       -0.68170
C          1.68890       -2.84130       -3.77150
C          2.82870       -2.19640       -3.51310
C          2.88070       -0.70360       -3.31400
O          2.11800       -0.27410       -2.24370
H          1.70260       -3.91840       -3.91210
H          0.74710       -2.30930       -3.84580
H          3.75290       -2.76060       -3.44980
H          2.51660       -0.20040       -4.23550
H          3.93510       -0.39730       -3.14910
