14
TSA8_9_Cl_F_H
C          1.39310       -1.08980       -1.26650
C          2.83800       -0.72130       -0.90670
Cl         0.50860        0.40850       -1.69330
H          0.84710       -1.52470       -0.40250
F          3.54010       -1.82910       -0.46230
C          1.39420       -2.09150       -2.43520
C          2.61070       -1.90710       -3.35890
C          3.14710       -0.47250       -3.28200
O          3.54990       -0.07960       -1.96690
H          1.46330       -3.13040       -2.04420
H          0.43400       -2.01590       -2.98830
H          3.44100       -2.55650       -3.00150
H          2.39400        0.24050       -3.67680
H          4.03340       -0.41250       -3.94750
