22
TSA8_9_NH2_CH2F_CH2F
C          2.16510        1.91260        0.01000
C          0.98510        2.29800       -0.86100
N          1.81250        0.74980        0.82940
H          3.02500        1.62570       -0.63800
C          1.10120        2.26580       -2.35710
C          2.60930        3.09420        0.91260
C          3.72490        2.65230        1.83500
C          3.59160        2.68320        3.16520
O         -0.06900        2.63590       -0.34100
C          3.09860        4.28770        0.07510
H          1.73480        3.42730        1.51680
H          4.65900        2.29940        1.40740
H          2.67290        3.02950        3.63050
H          4.40840        2.36000        3.80100
H          0.99800        0.96990        1.44740
H          1.56200       -0.05370        0.20820
F         -0.09010        2.64840       -2.94940
H          1.35260        1.23650       -2.68660
H          1.90390        2.95970       -2.68250
F          3.46770        5.33310        0.90370
H          2.29500        4.64920       -0.59940
H          3.97350        3.99450       -0.54550
