22
TSA8_9_NH2_CH2F_CH2F
C          1.76950        0.10880       -0.12440
C          1.45560        1.42250       -0.18420
N          1.85730       -0.61220        1.09590
H          1.93320       -0.44270       -1.04580
C          1.29520        2.09650       -1.51970
C          2.91240        4.62720        0.70170
C          3.25740        3.43510        1.20750
C          2.23920        2.52430        1.83680
O          1.24990        2.17350        0.93100
C          3.93640        5.53360        0.08920
H          1.87570        4.95170        0.73280
H          4.29530        3.11430        1.17750
H          1.76880        3.05520        2.69100
H          2.75860        1.63100        2.23360
H          1.60700       -0.19370        2.00090
H          2.09840       -1.61280        1.07250
F          0.01410        2.60470       -1.62670
H          1.46990        1.39710       -2.36550
H          2.02260        2.92960       -1.60230
F          4.89250        5.86960        1.03080
H          3.44570        6.46160       -0.27180
H          4.42560        5.02820       -0.77000
