15
TSA8_9_CN_Br_F
C          1.99010       -1.51110       -0.38040
C          2.59610       -1.49630        0.98410
C          2.45670       -0.39770       -1.22680
H          0.91480       -1.32690       -0.16010
Br         2.06590       -0.09330        2.17540
C          2.11320       -2.85870       -1.15320
C          0.83690       -3.07890       -1.92050
C         -0.29480       -3.29220       -1.22960
O          3.24780       -2.43670        1.41420
F          3.21570       -2.86310       -2.00210
H          2.21180       -3.73360       -0.47180
H          0.81770       -3.04960       -3.00430
H         -0.26810       -3.33350       -0.13930
H         -1.24670       -3.42300       -1.72380
N          2.80480        0.48440       -1.89000
