15
TSA8_9_CN_Br_F
C          1.65390       -0.02900        0.09720
C          1.66620       -1.08670        0.93710
C          1.76970       -0.09010       -1.34490
H          1.51310        0.96190        0.51740
Br         1.42060       -0.77080        2.80420
C          1.99960       -4.64550       -1.98410
C          1.86360       -3.38370       -1.57900
C          1.02520       -3.00410       -0.39900
O          1.81120       -2.37900        0.54480
F          2.77140       -4.91900       -3.06710
H          1.50230       -5.45820       -1.46520
H          2.37650       -2.60480       -2.12610
H          0.55710       -3.89610        0.07360
H          0.19990       -2.34230       -0.73230
N          1.85820       -0.09510       -2.50000
