20
TSA8_9_H_CH2F_CH2F
C          1.87850        0.17330       -0.04960
C          1.53840        1.43660       -0.37180
H          2.24820       -0.10630        0.92770
H          1.77610       -0.62920       -0.77390
C          1.00490        1.73930       -1.74420
C          2.74120        4.98920        1.49800
C          3.23020        3.75240        1.66930
C          2.32280        2.55820        1.69730
O          1.63750        2.48430        0.49570
C          3.64280        6.18450        1.46230
H          1.67120        5.13820        1.37790
H          4.30000        3.60340        1.79070
H          1.59470        2.67450        2.52770
H          2.94220        1.66220        1.89280
F         -0.25830        2.28930       -1.63830
H          0.94830        0.83240       -2.38340
H          1.67580        2.47270       -2.23830
F          4.32860        6.29670        2.65800
H          3.03800        7.10210        1.30500
H          4.36780        6.08570        0.62700
