25
TSA8_9_Et_NO2_CHF2
C          1.77200       -0.20330        0.09710
C          1.38060       -1.51320        0.15430
C          1.85290        0.76520       -1.05940
H          2.08050        0.26220        1.02800
N          1.41100       -2.17090        1.42560
C          2.49500       -3.02890       -3.83690
C          2.18440       -2.10830       -2.90940
C          0.82500       -2.08000       -2.25350
O          0.92550       -2.27620       -0.89210
C          3.84390       -3.06190       -4.49030
H          1.76280       -3.77470       -4.13510
H          2.92950       -1.37350       -2.62810
H          0.21210       -2.91410       -2.65720
H          0.24070       -1.16840       -2.48000
C          3.27770        1.29710       -1.17830
H          1.17310        1.61880       -0.84870
H          1.56530        0.36250       -2.03240
H          3.58310        1.79770       -0.23370
H          3.33650        2.03690       -2.00370
H          3.98330        0.46580       -1.38920
O          1.08630       -3.31760        1.50490
O          1.78970       -1.54120        2.51860
F          4.07850       -1.87140       -5.15420
F          4.82620       -3.26100       -3.53720
H          3.88010       -3.89530       -5.22320
