25
TSA8_9_Et_NO2_CHF2
C          2.43090       -1.25250       -1.05750
C          1.11350       -1.68700       -0.31400
C          2.32990        0.26430       -1.37050
H          3.27970       -1.37350       -0.34770
N          1.41060       -2.25180        0.98890
C          2.63160       -2.22010       -2.26590
C          1.38430       -2.23970       -3.17380
C          0.10160       -2.05860       -2.35450
O          0.28930       -2.58120       -1.06130
C          3.91070       -2.09200       -3.10670
H          2.69300       -3.22570       -1.79000
H          1.38800       -1.46680       -3.97260
H         -0.73900       -2.57350       -2.86350
H         -0.19350       -0.98490       -2.29600
C          3.67730        0.96970       -1.55830
H          1.88800        0.76510       -0.48020
H          1.65430        0.45500       -2.22960
H          4.30230        0.83930       -0.64920
H          3.50060        2.05670       -1.70290
H          4.25160        0.61430       -2.42280
O          1.06290       -3.35990        1.26770
O          2.02470       -1.52050        1.89380
F          3.87540       -0.98960       -3.93870
F          5.02760       -2.04380       -2.29210
H          3.99380       -2.98370       -3.76460
