19
TSA8_9_CCl3_H_NO2
C          1.82020        0.06530        0.05470
C          1.15340        1.22820        0.16120
C          2.09370       -0.95160        1.14670
H          2.20490       -0.18450       -0.93110
H          1.03970        1.83420       -0.73520
C         -0.23740        4.18770        3.46180
C         -0.55060        3.04470        2.82420
C         -0.14890        2.80330        1.39820
O          0.62370        1.66640        1.32600
N         -0.61430        4.43490        4.81190
H          0.31920        4.95740        2.93440
H         -1.11060        2.26700        3.33500
H          0.42100        3.67050        0.99220
H         -1.06730        2.66620        0.78760
Cl         1.45680       -0.56160        2.77100
Cl         1.38080       -2.50450        0.64820
Cl         3.85400       -1.16460        1.29070
O         -1.22500        3.62310        5.44060
O         -0.28860        5.57670        5.37660
