19
TSA8_9_CCl3_H_NO2
C          1.52670        1.55420        1.90350
C          1.28570        1.81990        0.40060
C          1.46260        0.01660        2.20400
H          2.57820        1.84220        2.12580
H          1.63430        2.83060        0.08560
C          0.59740        2.55310        2.67420
C         -0.85500        2.48470        2.17970
C         -0.87350        2.61400        0.65190
O         -0.07140        1.61480        0.04560
N          0.65600        2.44530        4.12050
H          0.96530        3.56880        2.39690
H         -1.34170        1.53920        2.48570
H         -0.54690        3.63090        0.33610
H         -1.91960        2.49670        0.30060
Cl         2.04190       -0.37200        3.84630
Cl        -0.14030       -0.73420        1.97380
Cl         2.59110       -0.84210        1.11370
O          0.13420        1.53150        4.68490
O          1.13940        3.44380        4.82780
