23
TSA8_9_OMe_CH2F_NO2
C          1.39390        0.56410       -1.34500
C          1.81390       -0.88390       -1.24860
O          2.50250        1.34980       -0.92700
H          0.49040        0.71190       -0.70150
C          1.10370       -1.83750       -0.33180
C          0.99730        0.98790       -2.78960
C         -0.24080        0.28110       -3.31700
C         -0.30210       -1.03080       -3.56070
O          2.76760       -1.28050       -1.90480
N          0.76120        2.42110       -2.81850
H          1.84620        0.76460       -3.47520
H         -1.12620        0.87180       -3.53820
H          0.54360       -1.68630       -3.39490
H         -1.21940       -1.46350       -3.94760
C          2.18720        2.11640        0.21610
H          1.50810        2.95420       -0.04990
H          3.12450        2.55680        0.61270
H          1.76060        1.49090        1.03230
F         -0.22950       -1.93680       -0.68220
H          1.17910       -1.47120        0.71330
H          1.56530       -2.84670       -0.38720
O         -0.11620        2.90830       -2.17000
O          1.51570        3.19580       -3.56930
