24
TSA8_9_OH_Me_Et
C          2.78660       -1.08640       -0.02070
C          2.12010       -1.19880        1.33340
O          1.78760       -1.05680       -1.00550
H          3.32320       -0.11250       -0.05520
C          2.29210       -0.12030        2.36050
C          3.80470       -2.24280       -0.28890
C          3.15030       -3.61580       -0.25790
C          2.20660       -3.99520       -1.12630
O          1.42090       -2.16670        1.59410
C          4.98660       -2.23320        0.71730
H          4.24190       -2.10610       -1.30310
H          3.46700       -4.34030        0.48910
H          1.78140       -4.99140       -1.05900
H          1.85530       -3.33740       -1.91210
H          2.20220       -0.68060       -1.82610
H          3.36610       -0.01790        2.61910
H          1.72460       -0.36490        3.28380
H          1.91760        0.84300        1.95590
C          5.85920       -0.97850        0.63350
H          5.64890       -3.09700        0.48630
H          4.61450       -2.35670        1.75760
H          6.25970       -0.85790       -0.39570
H          6.71460       -1.08010        1.33420
H          5.29970       -0.06700        0.92060
