24
TSA8_9_OH_Me_Et
C          1.92080       -0.14100        0.20150
C          1.45320       -1.01470        1.12330
O          2.34280       -0.52690       -1.01760
H          1.94690        0.92080        0.43340
C          0.97110       -0.49520        2.44820
C          4.50480       -2.80420       -0.38060
C          3.52250       -3.19750        0.44190
C          2.07180       -3.16160        0.04770
O          1.37300       -2.36700        0.93820
C          5.94690       -2.84180        0.04820
H          4.26840       -2.44330       -1.37900
H          3.76340       -3.55190        1.43960
H          1.68110       -4.19730        0.12600
H          1.90250       -2.84020       -0.99990
H          2.65080        0.12390       -1.66330
H          1.57780       -0.95410        3.25810
H         -0.09160       -0.77560        2.59240
H          1.06050        0.60950        2.53150
C          6.54500       -1.44040        0.02780
H          6.51300       -3.49790       -0.64610
H          6.04890       -3.25400        1.07650
H          6.49240       -1.01070       -0.99490
H          7.60920       -1.48580        0.34220
H          5.99470       -0.77900        0.73160
