24
TSA8_9_OMe_OMe_NH2
C          1.11700        0.35670        1.44190
C          1.80050        1.36830        0.56230
O          2.02760       -0.71430        1.64940
H          0.17520        0.03800        0.92750
O          1.22750        1.72250       -0.61810
C          0.70420        0.94960        2.81690
C         -0.33740        2.05520        2.70510
C         -0.10780        3.23890        2.12580
O          2.85830        1.86670        0.92420
N          0.17170       -0.12840        3.65450
H          1.60590        1.35530        3.32780
H         -1.32090        1.89130        3.13760
H          0.85210        3.49370        1.69570
H         -0.89720        3.98270        2.09150
C          1.48990       -1.93720        1.19500
H          0.63440       -2.25290        1.83080
H          2.27410       -2.71680        1.27840
H          1.20270       -1.88250        0.12110
C          1.70950        2.68460       -1.48480
H          2.63910        3.16670       -1.11390
H          0.93780        3.47050       -1.61770
H          1.91970        2.21830       -2.46900
H         -0.70590       -0.51540        3.23550
H         -0.04480        0.23970        4.60960
