26
TSA8_9_Et_F_Et
C          2.43490       -0.90790        1.12830
C          1.24520        0.05790        1.20980
C          2.47430       -1.25460       -0.39950
H          3.31930       -0.30730        1.43260
F          1.31090        1.24080        0.54140
C          2.33770       -2.13730        2.13820
C          1.68520       -1.70240        3.44550
C          0.55600       -2.25780        3.90060
O          0.21480       -0.20850        1.80690
C          3.68770       -2.74500        2.65060
H          1.70590       -2.92830        1.67640
H          2.15580       -0.92010        4.03620
H          0.12720       -1.92060        4.83890
H          0.05280       -3.04460        3.34790
C          3.62630       -2.05270       -0.97820
H          2.49890       -0.29560       -0.96570
H          1.53250       -1.78100       -0.67380
H          4.59240       -1.54770       -0.76970
H          3.50810       -2.10350       -2.08190
H          3.59400       -3.09570       -0.62790
C          4.62480       -3.45500        1.69200
H          3.42820       -3.52100        3.40820
H          4.27780       -1.95560        3.16910
H          4.09730       -4.27980        1.16910
H          5.45790       -3.90480        2.27340
H          5.09840       -2.73800        1.00500
