22
TSA8_9_CCl3_Me_NO2
C          1.41320       -0.36920        0.06130
C          2.00140       -1.20550        0.95920
C          2.02800        0.14930       -1.22450
H          0.41180       -0.01750        0.27440
C          3.40410       -1.72350        0.79250
C         -0.89910       -3.21390        4.06320
C         -0.28610       -3.08580        2.87390
C         -0.01890       -1.74070        2.26170
O          1.34700       -1.60860        2.08560
N         -1.14190       -4.48490        4.65740
H         -1.22180       -2.32410        4.59700
H          0.03970       -3.96500        2.32640
H         -0.38230       -0.92200        2.91910
H         -0.56730       -1.69780        1.29700
Cl         2.39170       -1.18400       -2.35050
Cl         0.86490        1.22770       -2.04070
Cl         3.50180        1.10460       -0.91710
H          3.66610       -2.38480        1.64560
H          4.13730       -0.89350        0.77910
H          3.49300       -2.32510       -0.13320
O         -0.78640       -5.49370        4.12540
O         -1.74860       -4.54830        5.82180
