22
TSA8_9_CCl3_Me_NO2
C          1.24170       -2.24520        1.13650
C          1.94900       -0.96050        1.72300
C          0.75750       -1.96210       -0.34220
H          2.00310       -3.05150        1.03730
C          3.42860       -1.21750        2.01070
C          0.22090       -2.72400        2.22770
C         -0.75570       -1.60140        2.60700
C         -0.02770       -0.24840        2.68890
O          1.34860       -0.45160        2.91320
N         -0.47530       -3.98200        2.01390
H          0.83410       -2.88200        3.14450
H         -1.66080       -1.51880        1.97000
H         -0.46730        0.35070        3.51290
H         -0.17310        0.36980        1.77950
Cl         0.30510       -3.42670       -1.24830
Cl        -0.61380       -0.83450       -0.49770
Cl         2.10100       -1.25890       -1.29040
H          3.53210       -1.99470        2.79950
H          3.91050       -0.28240        2.36410
H          3.95050       -1.55950        1.09320
O         -0.18330       -4.70980        1.11640
O         -1.28310       -4.42860        2.95110
