25
TSA8_9_OMe_CBr3_OMe
C          1.33380        0.02590       -0.18010
C          1.32240       -0.12100       -1.52120
O          1.21970        1.25260        0.37820
H          1.45190       -0.82900        0.47600
C          1.48240       -1.46760       -2.20670
C          0.11740        4.18280       -2.81540
C          0.29890        3.14930       -1.97070
C          0.02400        1.73140       -2.38720
O          1.17450        0.96430       -2.32800
O          0.32000        5.48270       -2.46460
H         -0.21370        3.98650       -3.83070
H          0.63250        3.32430       -0.95540
H         -0.35600        1.69220       -3.43100
H         -0.77090        1.31730       -1.72890
C          1.26310        1.45030        1.73990
H          1.16310        2.53400        1.95430
H          2.23370        1.09340        2.14730
H          0.42920        0.90650        2.23280
Br         1.68840       -3.01150       -1.03330
Br        -0.08240       -1.79460       -3.30270
Br         3.03480       -1.40640       -3.36240
C          0.65580        5.93780       -1.20540
H          0.73780        7.04360       -1.22910
H          1.63260        5.51520       -0.88840
H         -0.13540        5.65850       -0.47630
