20
TSA8_9_CF3_Cl_CF3
C          1.63820       -1.22260        2.04630
C          1.25830        0.14750        1.51870
C          1.83970       -2.19480        0.85690
H          2.63270       -1.11400        2.53260
Cl         2.32970        1.51660        1.77370
C          0.63060       -1.66200        3.16720
C         -0.79890       -1.77390        2.67210
C         -1.76960       -0.97550        3.12890
O          0.21760        0.31820        0.90300
C          1.01320       -2.96450        3.90180
H          0.68560       -0.85740        3.93700
H         -1.05380       -2.52540        1.93240
H         -1.56680       -0.21050        3.87220
H         -2.78240       -1.08520        2.75580
F          2.73810       -1.63960       -0.03880
F          2.37600       -3.39470        1.27910
F          0.65320       -2.43410        0.18860
F          0.85790       -4.07480        3.09230
F          2.32200       -2.89880        4.34570
F          0.18930       -3.12610        5.00260
