19
TSA8_9_F_NH2_CH2F
C          3.19450        1.22830        1.53420
C          1.73170        1.59900        1.40300
F          3.54400        0.40090        0.47860
H          3.77560        2.17250        1.44650
N          1.29330        2.21340        0.28020
C          3.55650        0.55480        2.88210
C          2.86860       -0.78660        3.02630
C          2.01330       -1.04340        4.02090
O          0.93960        1.36030        2.30340
C          5.07550        0.36340        3.01130
H          3.24660        1.24020        3.70370
H          3.07730       -1.56890        2.30170
H          1.77650       -0.29180        4.76740
H          1.54150       -2.01810        4.09110
H          0.30160        2.47640        0.18000
H          1.94410        2.42880       -0.48960
F          5.56370       -0.47760        2.02530
H          5.31670       -0.07350        4.00420
H          5.59030        1.34480        2.93480
