17
TSA8_9_H_CN_NO2
C          1.66910        0.05800       -0.01650
C          1.61610        1.39630        0.15620
H          1.62850       -0.64010        0.81670
H          1.60640       -0.37420       -1.00770
C          1.48870        2.25930       -0.99070
C          2.87420        1.30770        4.42750
C          2.47420        0.84100        3.23100
C          1.22640        1.35650        2.57350
O          1.54270        1.98800        1.38140
N          4.05040        0.83950        5.07780
H          2.28700        2.07600        4.92350
H          3.05330        0.08120        2.71610
H          0.69940        2.06980        3.24570
H          0.48710        0.54280        2.40560
N          1.38460        2.97740       -1.89210
O          4.73070       -0.01170        4.58880
O          4.39430        1.35510        6.23770
