17
TSA8_9_H_CN_NO2
C          2.84390        0.74660        1.54260
C          1.55570        1.28570        0.84000
H          2.72280       -0.35830        1.59540
H          3.76850        0.92300        0.94770
C          1.80260        1.97890       -0.42990
C          2.88550        1.32460        2.98360
C          1.58050        0.88970        3.64470
C          0.37940        1.36820        2.81720
O          0.77810        2.11970        1.68710
N          3.98560        0.90650        3.83000
H          2.93870        2.43440        2.90240
H          1.57870       -0.22850        3.67580
H         -0.19630        2.03080        3.48940
H         -0.28460        0.52500        2.51940
N          1.95760        2.53110       -1.43950
O          4.76310        0.07130        3.48260
O          4.10440        1.44720        5.02640
