24
TSA8_9_CHF2_OH_Et
C          1.58000        0.15130       -0.01310
C          1.70590       -0.71410        1.01120
C          1.39850       -0.23710       -1.46150
H          1.63650        1.21570        0.19610
O          1.90890       -0.24690        2.26910
C          4.43800       -2.59040        2.68010
C          3.69390       -2.85810        1.59320
C          2.19930       -2.98940        1.64870
O          1.65240       -2.05370        0.79540
C          5.93960       -2.39310        2.66180
H          3.94490       -2.49550        3.64380
H          4.14800       -2.96440        0.61450
H          1.79190       -2.86400        2.67800
H          1.92590       -4.00320        1.29070
F          2.46470        0.25440       -2.19050
F          1.32370       -1.60470       -1.65350
H          0.46540        0.22190       -1.84500
H          1.95750        0.69710        2.47630
C          6.59160       -2.44710        1.27660
H          6.40560       -3.16420        3.31030
H          6.15350       -1.39330        3.09580
H          6.43880       -3.44240        0.80880
H          7.68280       -2.26780        1.37100
H          6.16580       -1.65590        0.62110
