18
TSA8_9_CF3_Cl_CN
C          1.58740       -0.00580        0.03390
C          1.44200        0.17110        1.47090
C          1.66330       -1.13520       -0.91160
H          1.50690        0.91680       -0.49860
Cl         1.86430        1.82570        1.94000
C          1.14150       -4.16820        2.92550
C          1.40630       -2.85400        2.92430
C          0.41790       -1.86230        2.33960
O          0.79900       -0.53540        2.51570
C          2.07790       -5.08390        3.53200
H          0.22070       -4.54600        2.48650
H          2.32790       -2.51750        3.38930
H         -0.52120       -1.98990        2.89220
H          0.14050       -2.09740        1.29710
F          3.01490       -0.98970       -1.16050
F          1.44120       -2.40980       -0.44630
F          1.01170       -0.99390       -2.12200
N          2.85520       -5.78500        4.02620
