21
TSA8_9_CH2F_Me_CN
C          1.64970        0.05400       -0.11620
C          1.30250        0.85540       -1.16610
C          1.79050        0.35490        1.36020
H          1.87700       -0.97960       -0.35510
C          1.36380        0.29160       -2.55670
C          1.36870        5.15810       -0.12140
C          1.48180        3.88070        0.20230
C          0.39510        2.91190       -0.09090
O          0.90070        2.15080       -1.11350
C          2.54330        5.98460       -0.11960
H          0.42650        5.56380       -0.49590
H          2.43530        3.47940        0.54860
H         -0.51610        3.42500       -0.47400
H          0.04020        2.31700        0.76490
F          3.09970        0.08170        1.69460
H          1.13210       -0.31400        1.95970
H          1.60070        1.38460        1.69180
H          1.95460        0.97350       -3.20810
H          0.33510        0.21110       -2.96770
H          1.86320       -0.69850       -2.58090
N          3.50510        6.62600       -0.10710
