21
TSA8_9_CH2F_Me_CN
C          2.17090        1.82190       -0.34910
C          0.87770        1.25600       -1.02780
C          2.28380        1.24260        1.07640
H          3.06460        1.45500       -0.90350
C          1.20900        0.61370       -2.37460
C          2.09540        3.36790       -0.42630
C          0.82400        3.87750        0.27420
C         -0.35300        2.92180        0.00560
O         -0.14890        2.23160       -1.20910
C          3.28650        4.10310        0.01780
H          1.98320        3.61640       -1.50420
H          0.93020        3.99750        1.37650
H         -1.29750        3.50170       -0.02960
H         -0.48240        2.18970        0.83660
F          3.56600        1.40110        1.56800
H          2.06880        0.15110        1.04380
H          1.56180        1.69720        1.78340
H          1.68470        1.35340       -3.05440
H          0.28570        0.22220       -2.84700
H          1.90970       -0.23460       -2.21750
N          4.20540        4.72050        0.35540
