17
TSA8_9_NO2_OH_H
C          1.87300       -0.16640       -0.01860
C          1.47910       -1.44240       -0.25780
N          1.82820        0.89160       -0.96570
H          2.23540        0.07370        0.97840
O          1.47280       -2.32720        0.76560
C          3.91520       -2.93680       -3.22120
C          3.28630       -2.00410       -2.50690
C          1.82100       -1.70380       -2.67780
O          1.13760       -1.92730       -1.48780
H          4.97380       -3.11180       -3.06160
H          3.38680       -3.52510       -3.96410
H          3.85500       -1.43220       -1.77710
H          1.36600       -2.34150       -3.46580
H          1.73290       -0.67350       -3.03920
O          2.46740        1.87910       -0.74810
O          0.83590        0.96640       -1.82260
H          1.72530       -2.09190        1.67020
