17
TSA8_9_NO2_OH_H
C          2.70030       -0.99600       -0.65370
C          1.32750       -1.74100       -0.60740
N          2.55570        0.41110       -1.00000
H          3.17050       -1.03420        0.35470
O          1.37530       -2.71920        0.38840
C          3.59120       -1.72820       -1.66290
C          2.94400       -1.73760       -3.05320
C          1.40950       -1.68960       -2.96390
O          0.93990       -2.38160       -1.82720
H          4.62020       -1.31290       -1.71460
H          3.67590       -2.78330       -1.32120
H          3.26950       -0.87920       -3.67980
H          0.98200       -2.13560       -3.88530
H          1.03710       -0.64460       -2.94420
O          3.52440        1.10720       -1.05890
O          1.36580        0.95810       -1.13880
H          0.70670       -2.42710        1.05830
