17
TSA8_9_H_CF3_I
C          2.33390        0.60170        0.09180
C          1.51600        1.57060        0.55390
H          2.76080       -0.14950        0.74350
H          2.58740        0.52800       -0.95980
C          0.92480        2.60050       -0.37620
C          3.09500        3.35060        3.30100
C          3.16790        2.02860        3.10910
C          1.91530        1.20810        2.95390
O          1.18520        1.67220        1.87480
I          4.83570        4.52050        3.51150
H          2.12920        3.85020        3.35080
H          4.13690        1.54240        3.06150
H          1.30660        1.32760        3.87520
H          2.15110        0.12950        2.84940
F         -0.45330        2.55970       -0.29640
F          1.35630        3.85320        0.01770
F          1.29990        2.39920       -1.69420
