14
TSA8_9_Cl_F_I
C          1.83420       -1.83900       -0.02760
C          0.58250       -2.09440        0.76610
Cl         1.60070       -0.34820       -0.98950
H          2.67650       -1.66710        0.67800
F          0.63150       -2.10560        2.12360
C          2.17510       -3.03300       -0.94030
C          3.43700       -2.76530       -1.72040
C          3.45140       -2.74320       -3.05660
O         -0.48260       -2.29060        0.20080
I          2.49530       -4.81830        0.20900
H          1.32260       -3.21990       -1.63100
H          4.36200       -2.58470       -1.18030
H          2.54780       -2.91820       -3.63220
H          4.37850       -2.54670       -3.58540
