14
TSA8_9_Cl_F_I
C          1.86030       -0.19230        0.04870
C          1.42740       -1.45600       -0.06190
Cl         2.19490        0.82300       -1.34860
H          1.98940        0.24080        1.03530
F          1.14550       -2.15910        1.06590
C          2.39640       -4.75240       -1.09840
C          3.01380       -3.61400       -1.42960
C          2.26540       -2.48350       -2.08020
O          1.23390       -2.04720       -1.26770
I          3.46180       -6.32760       -0.18430
H          1.33690       -4.88560       -1.29300
H          4.07480       -3.49960       -1.22820
H          1.83890       -2.84320       -3.04030
H          2.96510       -1.65150       -2.30540
