20
TSA8_9_NO2_CN_CHF2
C          2.67970       -0.67570       -1.80370
C          1.78950       -1.56790       -0.94960
N          2.70600        0.66850       -1.24440
H          3.69650       -1.12860       -1.75170
C          2.17390       -1.90930        0.39670
C          2.24870       -0.70280       -3.31200
C          1.01720        0.14280       -3.56160
C         -0.18480       -0.37960       -3.80420
O          0.81270       -2.12540       -1.42480
C          3.36590       -0.28410       -4.28660
H          2.04810       -1.76990       -3.55680
H          1.11190        1.22520       -3.52820
H         -0.33820       -1.45230       -3.82280
H         -1.03120        0.28140       -3.96070
O          3.72920        1.13180       -0.84120
O          1.58490        1.33730       -1.06280
N          2.49220       -2.19620        1.47180
F          3.68930        1.05340       -4.15020
F          4.50150       -1.05020       -4.08310
H          3.02110       -0.46410       -5.32890
