20
TSA8_9_Me_Cl_CBr3
C          2.86400       -1.31140        0.08840
C          1.47690       -1.19880        0.68600
C          2.99870       -0.28560       -1.04800
H          3.57270       -1.00850        0.88690
Cl         1.27850       -0.70390        2.36000
C          3.17560       -2.80090       -0.29930
C          2.23440       -3.30460       -1.38030
C          1.35840       -4.28960       -1.15730
O          0.48280       -1.43420        0.01650
C          4.65400       -3.11260       -0.69390
H          3.00110       -3.38040        0.63670
H          2.26880       -2.85760       -2.36890
H          1.28590       -4.76930       -0.18600
H          0.70340       -4.62250       -1.95550
H          2.31710       -0.52180       -1.89170
H          4.03870       -0.22280       -1.41200
H          2.74170        0.72710       -0.66870
Br         4.89690       -5.03960       -0.80560
Br         5.21840       -2.40560       -2.41870
Br         5.90520       -2.49660        0.65980
