20
TSA8_9_Me_Cl_CBr3
C          2.84620       -1.45500        0.18320
C          1.39760       -1.60650        0.75170
C          2.79420       -0.56710       -1.06820
H          3.46480       -0.90290        0.92270
Cl         1.31640       -1.08200        2.45530
C          3.44540       -2.87640       -0.03650
C          2.50970       -3.71600       -0.93380
C          1.03230       -3.39840       -0.65590
O          0.87810       -2.92890        0.66440
C          4.93550       -2.98820       -0.46910
H          3.40050       -3.34300        0.97440
H          2.68630       -3.59810       -2.02480
H          0.42550       -4.31330       -0.81350
H          0.63540       -2.64620       -1.37630
H          2.22080       -1.03920       -1.89090
H          3.81310       -0.32550       -1.42260
H          2.31190        0.40160       -0.81600
Br         5.49610       -4.84720       -0.36810
Br         5.30800       -2.40640       -2.28870
Br         6.08900       -1.99860        0.73970
