18
TSA8_9_Cl_CHF2_CN
C          2.33970       -1.83660       -0.20830
C          1.36980       -1.87060        0.95860
Cl         2.06050       -0.32430       -1.12810
H          3.36880       -1.74910        0.18960
C          1.77220       -1.44760        2.34390
C          2.21300       -3.14500       -1.05680
C          1.44540       -2.89040       -2.33850
C          0.10950       -2.91420       -2.36400
O          0.21660       -2.23150        0.77810
C          3.50030       -3.76760       -1.39460
H          1.71320       -3.94270       -0.47900
H          1.98170       -2.60500       -3.23600
H         -0.46190       -3.16350       -1.47560
H         -0.41720       -2.65910       -3.28000
F          1.74080       -2.53480        3.19280
F          3.03500       -0.88240        2.36720
H          1.04870       -0.68350        2.69770
N          4.50780       -4.29680       -1.63910
