20
TSA8_9_NH2_OMe_H
C          1.53240       -0.15750       -0.19540
C          1.82000        1.06740        0.26900
N          1.23920       -1.24160        0.67220
H          1.52320       -0.33140       -1.26770
O          2.06510        2.04860       -0.64650
C          4.01220        1.81260        4.40510
C          3.15780        1.28050        3.52830
C          2.67660        2.06260        2.34220
O          1.80240        1.28210        1.61450
H          4.34910        1.23010        5.25650
H          4.38020        2.82660        4.28080
H          2.80910        0.26260        3.68140
H          3.56810        2.33670        1.74370
H          2.14750        2.97260        2.69710
H          1.23440       -1.13100        1.69680
H          1.02270       -2.16650        0.27420
C          2.16510        3.40470       -0.41340
H          2.23680        3.92640       -1.38960
H          3.08110        3.65990        0.14860
H          1.26010        3.77160        0.11580
