20
TSA8_9_NH2_OMe_H
C          2.78590        0.24360        1.13650
C          2.04620        1.53860        0.74540
N          1.83680       -0.86270        1.29290
H          3.50300       -0.04010        0.33450
O          2.93680        2.55350        0.34620
C          3.57000        0.49060        2.43730
C          2.65120        1.07260        3.51420
C          1.93960        2.30930        2.94830
O          1.18850        1.98950        1.78580
H          4.05470       -0.44330        2.79390
H          4.37250        1.23360        2.23470
H          1.89790        0.32250        3.83360
H          2.66590        3.12700        2.74180
H          1.24540        2.69740        3.72150
H          1.07390       -0.62260        1.96520
H          1.39280       -1.06730        0.36820
C          2.37910        3.18070       -0.78010
H          2.38550        2.50000       -1.65980
H          3.00300        4.06300       -1.03120
H          1.35530        3.56820       -0.57000
