17
TSA8_9_I_NO2_OH
C          3.04770        1.43480       -0.02860
C          1.51550        1.65020       -0.24420
I          3.33760       -0.22770        1.30860
H          3.54370        1.13300       -0.97670
N          1.20570        1.72870       -1.65850
C          3.66830        2.74230        0.49030
C          2.97080        3.21790        1.77820
C          1.48170        2.83480        1.75970
O          1.00260        2.80240        0.43320
O          5.06260        2.66650        0.64220
H          3.46100        3.51080       -0.28650
H          3.41340        2.79920        2.70820
H          0.90460        3.56610        2.36250
H          1.31560        1.84520        2.24410
O          0.67210        2.69500       -2.11440
O          1.45590        0.70080       -2.43930
H          5.25300        2.02670        1.37530
