19
TSA8_9_Br_NO2_Me
C          2.26690        0.98530        1.53850
C          1.26830        2.10330        1.29280
Br         1.36890       -0.70280        1.16120
H          3.12970        1.05440        0.84160
N          1.48250        3.06650        0.35270
C          2.80180        1.02250        2.99230
C          3.71330       -0.15570        3.25410
C          3.43850       -1.06230        4.19820
O          0.24520        2.13040        1.96430
C          3.58580        2.31490        3.26420
H          1.93530        0.98600        3.69060
H          4.61640       -0.27090        2.66100
H          2.54590       -0.98250        4.81170
H          4.11130       -1.89710        4.36310
O          0.67570        3.93130        0.18490
O          2.57600        3.06260       -0.37900
H          4.46270        2.39120        2.58460
H          2.94270        3.20720        3.11520
H          3.94800        2.32680        4.31460
