19
TSA8_9_Br_NO2_Me
C          1.76900        0.07900        0.10870
C          1.42050        0.92270        1.11030
Br         2.05120       -1.81250        0.25330
H          1.86350        0.45700       -0.90360
N          1.16400        2.29680        0.81620
C          3.39230        1.85600        3.94710
C          3.43610        0.64630        3.36890
C          2.18610       -0.16860        3.18180
O          1.26810        0.52050        2.40630
C          4.62350        2.68780        4.14650
H          2.44190        2.25830        4.28750
H          4.38250        0.23490        3.02860
H          1.73450       -0.35980        4.17820
H          2.44010       -1.14980        2.75260
O          0.85210        3.04190        1.69450
O          1.27520        2.76350       -0.41050
H          5.53320        2.18070        3.76050
H          4.50110        3.65410        3.61470
H          4.75870        2.88620        5.23030
