18
TSA8_9_H_CCl3_CN
C          1.58720       -0.07490       -0.00760
C          1.73520       -1.42520        0.05480
H          1.27210        0.46750       -0.90020
H          1.67950        0.55750        0.87460
C          2.43050       -2.13390        1.20440
C          0.56370       -3.67180       -3.47580
C          0.39410       -2.46500       -2.94550
C          0.09350       -2.38100       -1.51560
O          1.34900       -2.24970       -0.94290
C          1.36050       -3.76920       -4.66040
H          0.24700       -4.56600       -2.94040
H          0.75770       -1.56610       -3.43380
H         -0.38610       -3.30470       -1.10210
H         -0.59840       -1.58220       -1.32030
Cl         4.17230       -2.31350        0.81920
Cl         2.29890       -1.28110        2.75120
Cl         1.84230       -3.81150        1.37650
N          2.00420       -3.80350       -5.61570
