18
TSA8_9_H_CCl3_CN
C          1.96920       -1.50550       -1.67320
C          1.44110       -1.82690       -0.23670
H          1.50130       -0.55450       -2.01810
H          3.05860       -1.32850       -1.71680
C          2.46750       -2.16220        0.88750
C          1.50890       -2.63730       -2.58780
C         -0.02180       -2.59990       -2.62240
C         -0.60510       -2.43410       -1.20580
O          0.34330       -2.74400       -0.20800
C          2.05750       -2.58640       -3.94900
H          1.85060       -3.59860       -2.14810
H         -0.38970       -1.73730       -3.23000
H         -1.46440       -3.13170       -1.12370
H         -1.00000       -1.40900       -1.03090
Cl         4.19130       -2.07080        0.42060
Cl         2.21210       -0.98780        2.19690
Cl         2.21360       -3.79500        1.57550
N          2.47080       -2.57680       -5.03010
