16
TSA8_9_CN_Br_OH
C          1.62880        0.00720        0.10300
C          1.66280       -0.53460        1.34380
C          1.72810       -0.71040       -1.15090
H          1.45390        1.06930        0.00210
Br         1.35200        0.60030        2.85340
C          2.55190       -4.95390        0.41280
C          2.29830       -3.66050        0.18260
C          1.26040       -2.90350        0.95490
O          1.85580       -1.85160        1.61280
O          3.50560       -5.60720       -0.28600
H          1.99450       -5.49590        1.17010
H          2.86010       -3.13680       -0.58390
H          0.77080       -3.54570        1.71810
H          0.45950       -2.54570        0.27560
N          1.80200       -1.24550       -2.17550
H          4.05910       -5.16040       -0.94340
