24
TSA8_9_OMe_CF3_CH2F
C          2.57350        1.18890       -0.14840
C          1.28430        0.94220       -0.90950
O          2.39390        0.87830        1.22530
H          3.38090        0.57170       -0.61340
C          1.26090       -0.00300       -2.08110
C          3.03700        2.66270       -0.29250
C          2.07120        3.62170        0.37250
C          1.42480        4.56980       -0.31230
O          0.25730        1.51370       -0.57320
C          4.44120        2.86550        0.29950
H          3.11350        2.88890       -1.38100
H          1.89740        3.54020        1.44200
H          1.56770        4.68850       -1.38160
H          0.74190        5.23780        0.20280
C          2.63040       -0.49090        1.46590
H          2.45300       -0.68930        2.54270
H          3.68860       -0.75970        1.25410
H          1.92030       -1.13030        0.89920
F         -0.00940       -0.07290       -2.62550
F          2.13910        0.44370       -3.05100
F          1.64230       -1.26790       -1.67320
F          4.46000        2.60460        1.65920
H          4.77150        3.91340        0.13300
H          5.16790        2.19440       -0.20620
