24
TSA8_9_OMe_CF3_CH2F
C          2.69580        1.20680       -0.19450
C          1.32400        1.08680       -0.95370
O          2.48560        1.20640        1.20840
H          3.39100        0.38210       -0.48290
C          1.43680        0.24540       -2.23080
C          3.34460        2.54480       -0.59900
C          2.41270        3.71790       -0.22580
C          0.93660        3.28840       -0.26780
O          0.73090        2.34310       -1.29270
C          4.75550        2.74030       -0.02710
H          3.44020        2.53770       -1.70630
H          2.60050        4.13120        0.78930
H          0.29740        4.18040       -0.43070
H          0.61480        2.85780        0.70890
C          2.22790       -0.10340        1.66650
H          2.07720       -0.06380        2.76460
H          3.09390       -0.77660        1.48230
H          1.29250       -0.51120        1.22510
F          0.18640        0.12040       -2.80730
F          2.29140        0.84300       -3.13910
F          1.90690       -1.01940       -1.92530
F          4.73600        2.76940        1.35660
H          5.18300        3.69550       -0.39960
H          5.41560        1.91110       -0.35980
