24
TSA8_9_CBr3_OMe_CHF2
C          2.29500       -1.88240       -1.30690
C          2.29270       -2.46090        0.14200
C          0.90110       -1.41560       -1.84880
H          2.89790       -0.94860       -1.26720
O          1.58810       -1.64080        1.03490
C          3.09830       -2.87390       -2.22200
C          4.37090       -3.39090       -1.50120
C          4.65670       -2.59610       -0.22880
O          3.58640       -2.72810        0.69440
C          2.30380       -4.08140       -2.76390
H          3.43170       -2.28980       -3.10710
H          4.23670       -4.44050       -1.15670
H          4.87560       -1.52720       -0.44090
H          5.57100       -3.01800        0.23750
Br         0.25920        0.14880       -0.88490
Br         1.02420       -0.83090       -3.70030
Br        -0.50430       -2.75530       -1.70910
C          0.79880       -2.48600        1.83610
H          0.16210       -1.85570        2.48950
H          1.43540       -3.11430        2.49880
H          0.11120       -3.11450        1.22590
F          3.11470       -4.85510       -3.57610
F          1.82690       -4.86590       -1.72720
H          1.45400       -3.74320       -3.38570
