20
TSA8_9_CF3_CBr3_F
C          2.56140       -1.63120       -0.27930
C          1.27000       -2.11320        0.36900
C          2.35830       -0.24390       -0.93090
H          3.32330       -1.48260        0.51800
C          1.16060       -2.31980        1.86910
C          3.16360       -2.71720       -1.22360
C          2.30900       -3.14710       -2.39520
C          2.10040       -2.38530       -3.47230
O          0.29950       -2.33640       -0.34070
F          3.41860       -3.84550       -0.46340
H          4.14610       -2.37440       -1.61480
H          1.87990       -4.14490       -2.38380
H          1.49440       -2.76170       -4.29020
H          2.54210       -1.40030       -3.56540
F          3.52780        0.16810       -1.54450
F          1.33170       -0.25270       -1.85650
F          2.03430        0.68280        0.04300
Br         1.50060       -0.66470        2.81850
Br        -0.61160       -2.93380        2.38660
Br         2.43370       -3.64850        2.47730
