20
TSA8_9_CF3_CBr3_F
C          2.73530       -1.22040       -0.55420
C          1.28290       -1.65490       -0.21540
C          2.71790        0.15460       -1.26570
H          3.30650       -1.00730        0.37470
C          1.02860       -2.37320        1.13270
C          3.49520       -2.30940       -1.35710
C          2.56450       -3.33460       -2.01220
C          1.23240       -2.70630       -2.39810
O          0.50130       -2.16990       -1.29770
F          4.36320       -2.99770       -0.52590
H          4.11900       -1.82460       -2.13780
H          2.33300       -4.16080       -1.31560
H          0.61590       -3.50900       -2.85410
H          1.37270       -1.94380       -3.18590
F          4.01560        0.58520       -1.48300
F          2.05950        0.12290       -2.47690
F          2.08890        1.08270       -0.45370
Br         1.59410       -1.23800        2.60110
Br        -0.87570       -2.66050        1.36540
Br         1.91520       -4.08350        1.33910
