22
TSA8_9_OMe_OH_CHF2
C          1.59040        0.12810       -0.05410
C          1.51220        1.46330       -0.26660
O          1.34330       -0.43300        1.15320
H          1.83400       -0.51630       -0.89580
O          1.72920        1.93880       -1.51320
C          3.30560        2.99550        3.29530
C          2.69810        2.09190        2.51130
C          1.26430        2.25550        2.07620
O          1.20650        2.37990        0.69950
C          4.74250        2.84130        3.69330
H          2.76220        3.86760        3.64830
H          3.25390        1.22600        2.16220
H          0.83710        3.18140        2.51690
H          0.63230        1.41970        2.43520
C          1.30530       -1.79360        1.37120
H          2.06620       -2.06590        2.13060
H          1.49820       -2.37430        0.44210
H          0.30090       -2.06840        1.75480
H          1.95490        1.37040       -2.26440
F          4.91910        1.66320        4.39550
F          5.54350        2.83100        2.56550
H          5.04300        3.69460        4.33720
