17
TSA8_9_CBr3_F_H
C          1.65170       -0.71090       -1.43400
C          0.91660       -1.21770       -0.21090
C          1.51000        0.83510       -1.59460
H          2.73100       -0.89940       -1.23790
F          1.61980       -1.80140        0.79440
C          1.33960       -1.53300       -2.72230
C         -0.06760       -1.47960       -3.26560
C         -1.10120       -2.09390       -2.68300
O         -0.28720       -1.06720       -0.08150
H          2.00900       -1.15880       -3.52380
H          1.61510       -2.59910       -2.56630
H         -0.24030       -0.95380       -4.20040
H         -0.97890       -2.67400       -1.77630
H         -2.08700       -2.03740       -3.13290
Br         2.12190        1.73210        0.01960
Br         2.63240        1.50360       -3.03480
Br        -0.30780        1.44370       -1.93400
