20
TSA8_9_CBr3_CBr3_I
C          1.00170        0.11650        1.37250
C          2.25890        1.00440        1.52880
C          1.19070       -1.30250        0.73350
H          0.45210        0.62630        0.54960
C          3.51870        0.82750        2.37740
C         -0.01120        0.21470        2.56880
C         -0.39640        1.65090        2.85980
C         -1.01640        2.42420        1.96050
O          2.24520        2.03420        0.86490
I          0.53260       -0.67910        4.44660
H         -0.94670       -0.31450        2.29250
H         -0.18440        2.07590        3.83640
H         -1.28270        3.44450        2.21550
H         -1.27340        2.05250        0.97400
Br        -0.51020       -1.92260        0.01690
Br         2.39270       -1.20040       -0.79070
Br         1.80100       -2.75720        1.85670
Br         3.81090       -0.76660        3.42380
Br         5.05850        0.93650        1.20060
Br         3.62420        2.31190        3.62050
