20
TSA8_9_CBr3_CBr3_I
C          0.74140       -0.05110        1.32290
C          1.90390        1.00910        1.32080
C          1.02370       -1.53470        0.92610
H          0.18920        0.30310        0.42290
C          3.21160        0.90840        2.16660
C         -0.28350        0.19790        2.47940
C         -0.31450        1.67900        2.87730
C          0.08420        2.56900        1.70210
O          1.43030        2.36370        1.28280
I         -0.20280       -0.94860        4.30270
H         -1.28280       -0.06500        2.07050
H          0.41220        1.88880        3.68710
H         -0.01150        3.62240        2.03850
H         -0.61180        2.43150        0.84670
Br        -0.65220       -2.45450        0.56600
Br         2.01590       -1.59850       -0.74450
Br         1.96470       -2.62930        2.22820
Br         4.39580       -0.51130        1.59520
Br         4.27990        2.50860        1.88130
Br         2.94190        0.77350        4.07630
