20
TSA8_9_H_CHF2_CCl3
C          1.87630        0.23600       -0.09050
C          1.46760        1.51890       -0.03780
H          2.32650       -0.27850        0.74580
H          1.75540       -0.34330       -1.00100
C          0.83810        2.15440       -1.24630
C          2.92630        4.46700        2.44650
C          3.30250        3.17860        2.39810
C          2.29200        2.08400        2.24160
O          1.59000        2.30630        1.06860
C          3.92530        5.58670        2.56200
H          1.86770        4.71010        2.38680
H          4.35550        2.91540        2.45330
H          1.58580        2.09970        3.09890
H          2.82700        1.11690        2.25140
F         -0.43570        2.58470       -0.92830
F          1.59760        3.24420       -1.63110
H          0.77310        1.45060       -2.10290
Cl         3.07700        7.15310        2.59030
Cl         4.87680        5.42960        4.06110
Cl         5.02720        5.57180        1.15870
