20
TSA8_9_H_CHF2_CCl3
C          2.95220        2.33140        0.50330
C          1.56510        1.63110        0.34590
H          3.66080        1.61790        0.97640
H          3.36960        2.58890       -0.49310
C          0.80850        2.12950       -0.89000
C          2.80300        3.54930        1.43440
C          2.26930        3.06710        2.80720
C          1.45890        1.76580        2.67930
O          0.71110        1.76740        1.48430
C          4.09010        4.40260        1.56850
H          2.02210        4.20250        0.99130
H          3.06740        2.87150        3.55510
H          0.78490        1.66300        3.55440
H          2.13080        0.87580        2.69910
F         -0.35770        1.40230       -1.04000
F          0.49040        3.47020       -0.77320
H          1.43070        1.98100       -1.79740
Cl         3.79580        5.80310        2.63670
Cl         5.45710        3.46260        2.23550
Cl         4.58430        5.04820       -0.02120
