17
TSA8_9_CH2F_Br_I
C          1.69100       -0.31360       -2.03730
C          0.97530       -1.14790       -0.95760
C          1.68500        1.16940       -1.61870
H          2.75540       -0.62660       -2.10560
Br         1.35840       -3.06120       -1.03070
C          0.99810       -0.57890       -3.39300
C         -0.50530       -0.33080       -3.27560
C         -1.05860       -1.17050       -2.11640
O         -0.41580       -0.86260       -0.88740
I          1.83180        0.53530       -5.02610
H          1.14160       -1.64900       -3.65830
H         -0.71540        0.74460       -3.09890
H         -0.98460       -2.25540       -2.34540
H         -2.14110       -0.94840       -2.01430
F          2.35800        1.31850       -0.41850
H          0.65470        1.55890       -1.48960
H          2.20320        1.79070       -2.37680
