24
TSA8_9_CCl3_OMe_CCl3
C          1.13220       -0.83020        1.70010
C          2.33230       -0.23560        2.43740
C          1.58380       -1.66750        0.44480
H          0.60400        0.05170        1.26920
O          3.59890       -0.62770        2.14060
C          0.10200       -1.43860        2.74840
C         -1.27610       -1.63570        2.13490
C         -2.32340       -0.87300        2.46580
O          2.14190        0.60590        3.30610
C          0.48920       -2.71500        3.56860
H         -0.00760       -0.62970        3.50640
H         -1.44410       -2.42870        1.41880
H         -2.23120       -0.06570        3.18480
H         -3.29100       -1.05830        2.01000
Cl         2.65040       -3.05120        0.81780
Cl         0.22830       -2.25950       -0.54770
Cl         2.51210       -0.60720       -0.65990
C          4.72460       -0.16930        2.79070
H          5.61950       -0.65340        2.34770
H          4.67480       -0.43250        3.86870
H          4.81530        0.93060        2.67310
Cl         2.08690       -2.59330        4.35370
Cl        -0.68820       -2.92980        4.89780
Cl         0.42820       -4.22790        2.62070
