18
TSA8_9_Me_OH_F
C          2.50390       -0.36350       -1.00030
C          1.93630       -1.32000        0.02940
C          1.43980        0.66320       -1.40750
H          3.32870        0.21690       -0.53040
O          2.44770       -1.37360        1.27720
C          3.14500       -1.12460       -2.19330
C          2.22250       -2.04210       -2.96590
C          1.22540       -1.60570       -3.74110
O          1.00090       -2.05030       -0.25990
F          4.18110       -1.89450       -1.68990
H          3.59550       -0.39600       -2.90210
H          2.39910       -3.11290       -2.91430
H          0.61060       -2.31990       -4.27920
H          1.02050       -0.55000       -3.86780
H          0.53390        0.17790       -1.82030
H          1.85760        1.37420       -2.15160
H          1.12310        1.24390       -0.51440
H          3.18680       -0.81440        1.55310
