18
TSA8_9_Me_OH_F
C          1.87160       -0.19310        0.03550
C          1.57890       -1.52080       -0.07710
C          1.96840        0.88690       -1.00910
H          2.06440        0.17910        1.03840
O          1.54410       -2.25350        1.06090
C          3.06340       -1.26750       -4.25090
C          2.77560       -1.57860       -2.98500
C          1.36110       -1.86850       -2.55970
O          1.30650       -2.21280       -1.22500
F          4.34710       -1.00990       -4.61280
H          2.28060       -1.21680       -5.00180
H          3.57820       -1.62230       -2.25410
H          1.00350       -2.74010       -3.14780
H          0.66030       -1.03730       -2.77580
H          1.76780        0.59650       -2.04250
H          2.99030        1.31850       -0.97920
H          1.24330        1.68750       -0.75420
H          1.71680       -1.88510        1.94010
