18
TSA8_9_Me_OH_F
C          2.53930       -0.41460       -1.23350
C          1.37270       -1.28440       -0.71920
C          2.34380        1.05920       -0.85620
H          3.48640       -0.78230       -0.77800
O          1.24670       -1.17510        0.66690
C          2.61070       -0.57480       -2.76380
C          2.67330       -2.05790       -3.12800
C          1.49360       -2.77710       -2.46250
O          1.57340       -2.64180       -1.05820
F          3.71760        0.08020       -3.27500
H          1.69490       -0.14420       -3.22690
H          3.62460       -2.50000       -2.75790
H          1.54810       -3.85570       -2.71800
H          0.51740       -2.40230       -2.84850
H          1.39830        1.45070       -1.28990
H          3.19160        1.66830       -1.23520
H          2.30490        1.17540        0.24730
H          0.32800       -0.83360        0.80900
