15
TSA8_9_I_H_OH
C          1.66610        0.94200        2.22820
C          1.53960        1.40040        0.80030
I          1.11830       -1.13340        2.35800
H          2.74650        1.00270        2.48400
H          2.41930        1.75970        0.27640
C          0.91950        1.80150        3.28150
C         -0.59050        1.81610        3.15250
C         -1.23670        2.47310        2.18500
O          0.48490        1.31050        0.19400
O          1.25140        1.29180        4.54820
H          1.29870        2.84880        3.21080
H         -1.18420        1.31010        3.90910
H         -0.70370        3.04060        1.43120
H         -2.32140        2.46660        2.15820
H          1.09940        2.02100        5.20560
