15
TSA8_9_I_H_OH
C          2.02400        0.08780        0.11920
C          1.28140        1.11070        0.54570
I          2.44630       -1.57920        1.35190
H          2.42630        0.09880       -0.88850
H          1.08960        1.94330       -0.12720
C         -0.12170        2.64900        4.69930
C         -0.43020        1.83350        3.67990
C         -0.02070        2.13730        2.26850
O          0.77060        1.11350        1.79870
O         -0.49800        2.35990        5.96500
H          0.43960        3.56100        4.52110
H         -0.99280        0.92320        3.86860
H          0.53970        3.09750        2.21120
H         -0.93590        2.22100        1.64290
H         -0.99920        1.56270        6.18860
