20
TSA8_9_CH2F_Me_H
C          1.78480        0.04350        0.19410
C          1.51270        0.19650        1.52240
C          2.16620       -1.18240       -0.59250
H          1.71830        0.92950       -0.43260
C          1.13360        1.56880        2.01390
C          4.03630       -3.37620        2.25320
C          3.42280       -2.19100        2.24910
C          1.94250       -2.08280        2.49800
O          1.53630       -0.76450        2.49680
H          5.10470       -3.43480        2.07250
H          3.48100       -4.29120        2.43610
H          4.00700       -1.29410        2.06300
H          1.73810       -2.49740        3.50760
H          1.33490       -2.67770        1.78710
F          3.39420       -0.96820       -1.18920
H          1.40790       -1.33290       -1.38870
H          2.22350       -2.12070       -0.03690
H          1.86170        1.89390        2.78620
H          0.12190        1.52800        2.46910
H          1.11960        2.33350        1.20770
