20
TSA8_9_CH2F_Me_H
C          2.75270       -0.83420        0.83570
C          1.50640       -0.46010        1.68630
C          2.48010       -0.78810       -0.67750
H          3.57500       -0.12230        1.07330
C          0.94660        0.92930        1.37940
C          3.18420       -2.25790        1.24190
C          3.36080       -2.34520        2.75610
C          2.07490       -1.85420        3.42630
O          1.82910       -0.51230        3.06310
H          4.13080       -2.54810        0.73770
H          2.39500       -2.98490        0.94440
H          4.20930       -1.70050        3.07530
H          2.20800       -1.90490        4.52690
H          1.20710       -2.50720        3.17480
F          3.61380       -1.15750       -1.37980
H          2.20910        0.23720       -0.99920
H          1.65020       -1.47800       -0.94280
H          1.72160        1.70580        1.55510
H          0.08080        1.13070        2.04460
H          0.58200        0.99440        0.33540
