22
TSA8_9_NH2_CCl3_Me
C          2.84370       -1.43440       -0.49300
C          1.56690       -1.40620        0.33470
N          3.08650       -0.12700       -1.11240
H          3.69230       -1.64540        0.19480
C          1.61110       -1.64290        1.82950
C          2.82400       -2.57650       -1.54710
C          1.75640       -2.37640       -2.60370
C          0.75480       -3.24420       -2.77510
O          0.49780       -1.18470       -0.21620
C          4.18840       -2.70630       -2.23470
H          2.64240       -3.53100       -1.00200
H          1.80410       -1.50600       -3.25140
H          0.66490       -4.13020       -2.15510
H          0.01190       -3.06650       -3.54620
H          2.27200        0.16240       -1.70040
H          3.20860        0.59140       -0.36230
Cl         2.29920       -3.25110        2.17280
Cl         2.62200       -0.40010        2.61100
Cl        -0.01680       -1.57180        2.56340
H          4.98090       -2.89740       -1.47980
H          4.44270       -1.78080       -2.79440
H          4.17690       -3.56060       -2.94530
