14
TSA8_9_I_Cl_H
C          1.70680        1.93070        0.37330
C          0.45970        2.01310       -0.46380
I          1.53300        0.17570        1.60310
H          2.57550        1.78760       -0.30540
Cl         0.56030        1.90210       -2.21410
C          1.90250        3.25180        1.14910
C          3.23830        3.37710        1.84250
C          3.59520        2.65810        2.91050
O         -0.63240        2.15910        0.06320
H          1.87010        4.07280        0.39850
H          1.07590        3.42000        1.87290
H          3.94090        4.11600        1.46690
H          2.93260        1.93040        3.35880
H          4.56880        2.81390        3.36310
