14
TSA8_9_I_Cl_H
C          1.92940        0.23410       -0.05940
C          1.44210        1.46610       -0.31630
I          2.58100       -0.55450        1.80410
H          1.96500       -0.48520       -0.87160
Cl         0.87070        1.79830       -1.94420
C          2.23590        5.06150        2.58120
C          2.52050        4.21870        1.58410
C          2.16650        2.76170        1.64630
O          1.31740        2.46670        0.59830
H          2.50790        6.10880        2.49910
H          1.73380        4.72030        3.48130
H          3.02420        4.59690        0.69910
H          1.65850        2.51680        2.60420
H          3.11670        2.19650        1.57290
