14
TSA8_9_I_Cl_H
C          2.33650        2.34570       -0.18240
C          1.10380        1.65820        0.47720
I          4.10060        1.11930       -0.04320
H          2.17460        2.45280       -1.27680
Cl        -0.36030        2.04160       -0.46850
C          2.54340        3.71190        0.46890
C          2.74800        3.56320        1.98350
C          2.03370        2.31470        2.53100
O          0.84090        2.06760        1.82190
H          3.38110        4.28180        0.01390
H          1.61110        4.29590        0.30830
H          3.82050        3.48610        2.26470
H          1.81510        2.46500        3.60830
H          2.68550        1.41530        2.48180
