17
TSA8_9_CHF2_Br_H
C          1.80180       -0.37700       -1.88370
C          1.04770       -1.20800       -0.82810
C          1.61930        1.12540       -1.59870
H          2.89180       -0.58670       -1.81650
Br         1.61210       -3.07370       -0.72330
C          1.29770       -0.78220       -3.28150
C         -0.22680       -0.68570       -3.34550
C         -0.82670       -1.50700       -2.19740
O         -0.36270       -1.06040       -0.93160
H          1.76540       -0.16260       -4.07570
H          1.58130       -1.83980       -3.47490
H         -0.55710        0.37080       -3.26610
H         -0.62450       -2.59090       -2.33920
H         -1.93010       -1.39090       -2.22950
F          2.13860        1.42830       -0.35220
F          2.29080        1.87370       -2.54910
H          0.54970        1.41800       -1.60540
