19
TSA8_9_OH_CN_Me
C          1.58940       -0.07400       -0.00980
C          1.39000       -1.23100       -0.68370
O          1.55140        1.13460       -0.60710
H          1.68240       -0.10060        1.07360
C          1.26580       -2.44470        0.07540
C          3.09880       -0.06120       -4.50460
C          2.57130        0.06640       -3.28170
C          1.16330       -0.35510       -2.98630
O          1.16100       -1.34040       -2.02420
C          4.49600        0.38980       -4.78660
H          2.51160       -0.48670       -5.31400
H          3.16850        0.48050       -2.47680
H          0.67120       -0.75680       -3.89940
H          0.54160        0.50330       -2.66180
H          1.38610        1.92920       -0.07800
N          1.16130       -3.43050        0.67100
H          5.22060       -0.14720       -4.13800
H          4.57280        1.48180       -4.60070
H          4.74050        0.18890       -5.84940
