19
TSA8_9_OH_CN_Me
C          2.70530       -0.15270       -1.41660
C          1.31310       -0.85420       -1.18570
O          2.59310        1.19650       -1.03250
H          3.51230       -0.62140       -0.80380
C          1.33310       -1.96330       -0.22390
C          3.02120       -0.27180       -2.94200
C          1.86670        0.37930       -3.70420
C          0.52280       -0.18420       -3.23810
O          0.70340       -1.29830       -2.38770
C          4.33770        0.24520       -3.54620
H          3.04070       -1.36250       -3.15890
H          1.87030        1.48630       -3.55800
H         -0.01880       -0.49540       -4.15530
H         -0.09280        0.59160       -2.73260
H          2.06600        1.22410       -0.18610
N          1.34770       -2.83640        0.53310
H          5.22580       -0.28170       -3.14200
H          4.46340        1.34410       -3.46410
H          4.30390        0.00200       -4.63780
