21
TSA8_9_H_OMe_CBr3
C          3.22020        0.99040       -0.17250
C          1.82070        0.68200       -0.66620
H          3.20550        1.04490        0.93860
H          3.88170        0.14370       -0.44500
O          1.52290        0.44650       -1.97380
C          3.75260        2.33770       -0.72770
C          2.84220        3.46150       -0.26700
C          2.16620        4.22740       -1.12870
O          0.91130        0.65330        0.14700
C          5.21820        2.61740       -0.29660
H          3.75140        2.29220       -1.83780
H          2.73050        3.65130        0.79670
H          2.24520        4.07390       -2.20040
H          1.52400        5.02040       -0.75890
C          2.41010        0.19750       -3.00340
H          2.33620        1.00890       -3.75660
H          2.13550       -0.76220       -3.48700
H          3.46050        0.11220       -2.66240
Br         5.83570        4.30330       -1.04550
Br         5.43980        2.71140        1.63610
Br         6.41970        1.24780       -0.97350
