16
TSA8_9_Cl_NO2_Br
C          2.98050        0.81650       -1.05380
C          1.45070        0.95860       -1.34360
Cl         3.27620        0.85300        0.71330
H          3.35450       -0.17090       -1.40030
N          1.05800        0.05420       -2.40840
C          3.72160        1.94860       -1.77330
C          3.20770        3.31790       -1.29930
C          1.72660        3.24260       -0.89080
O          1.04560        2.29270       -1.67870
Br         5.65260        1.82900       -1.59600
H          3.48410        1.85310       -2.85550
H          3.76950        3.71830       -0.42750
H          1.26300        4.24380       -1.00690
H          1.61460        2.98190        0.18580
O          0.55780        0.46980       -3.41050
O          1.19190       -1.24410       -2.24470
