18
TSA8_9_H_CF3_OH
C          1.88910        0.14610       -0.17610
C          1.55040        1.17550       -0.98090
H          2.25070        0.28350        0.83350
H          1.79800       -0.88270       -0.50740
C          1.02250        0.92680       -2.37330
C          2.74790        5.18560       -0.64560
C          3.22640        4.11570        0.00680
C          2.31330        3.02710        0.48870
O          1.64450        2.48140       -0.59540
O          3.56830        6.16680       -1.08120
H          1.68200        5.27600       -0.83300
H          4.29300        4.02890        0.19560
H          1.57310        3.46030        1.19420
H          2.92720        2.28450        1.03220
F         -0.23870        1.48110       -2.48640
F          1.86150        1.53600       -3.28760
F          0.94240       -0.42220       -2.67740
H          4.52700        6.14040       -0.94520
