18
TSA8_9_H_CF3_OH
C          3.03380        1.82240       -0.89970
C          1.50060        1.55720       -0.74910
H          3.56140        1.39500       -0.01900
H          3.44840        1.32320       -1.80160
C          0.80110        1.37370       -2.10190
C          3.28370        3.33090       -0.90590
C          2.76000        3.94500        0.40820
C          1.61950        3.10290        1.00780
O          0.80770        2.57260       -0.01680
O          4.65030        3.60170       -1.06680
H          2.71290        3.75230       -1.76320
H          3.54860        4.02360        1.18830
H          1.01470        3.73300        1.69180
H          2.02480        2.27090        1.63020
F         -0.53140        1.07200       -1.88810
F          0.88080        2.52670       -2.86120
F          1.38000        0.32800       -2.79800
H          4.72120        4.55840       -1.32250
