21
TSA8_9_CN_CCl3_CH2F
C          2.91830        0.84840       -0.79360
C          1.69450        0.30370       -1.55820
C          2.42510        1.06330        0.60990
H          3.72500        0.10170       -0.79120
C          1.62680       -1.05730       -2.22880
C          3.40770        2.18870       -1.51890
C          2.62680        3.33880       -0.93670
C          1.48340        3.76210       -1.44990
O          0.71390        1.02330       -1.69330
C          4.90520        2.61990       -1.57260
H          3.18550        2.00970       -2.59130
H          2.96030        3.75320        0.01320
H          1.09080        3.32300       -2.35730
H          0.92040        4.51260       -0.91270
N          2.07300        1.33180        1.67590
Cl         2.88360       -2.20480       -1.69710
Cl         0.04030       -1.81890       -1.91550
Cl         1.77590       -0.82860       -3.98950
F          5.36570        3.18240       -0.39340
H          4.98640        3.41620       -2.35420
H          5.59850        1.81660       -1.90120
