21
TSA8_9_CN_CCl3_CH2F
C          2.92060        0.92950       -0.84490
C          1.53800        0.55740       -1.46840
C          2.58020        1.27490        0.55140
H          3.60590        0.06220       -0.78830
C          1.48120       -0.72540       -2.33860
C          3.51380        2.08320       -1.71070
C          2.61950        3.29610       -1.52870
C          1.13960        2.92090       -1.64110
O          0.91150        1.62930       -2.19020
C          4.98860        2.53830       -1.61920
H          3.43900        1.72640       -2.75840
H          2.79390        3.75030       -0.52040
H          0.72660        3.67580       -2.33950
H          0.60580        3.03810       -0.67440
N          2.29300        1.56970        1.63690
Cl         2.48170       -2.07440       -1.72630
Cl        -0.20260       -1.30240       -2.32270
Cl         1.94110       -0.40900       -4.03470
F          5.30290        3.15300       -0.42160
H          5.14100        3.29160       -2.43290
H          5.70450        1.71730       -1.83140
