16
TSA8_9_I_NH2_I
C          1.87470        0.13260        0.09930
C          1.53340        1.32820        0.63270
I          2.20920       -1.72680        1.06090
H          1.96140        0.05570       -0.98060
N          1.28880        2.41360       -0.25050
C          4.05430        2.60810        3.76440
C          3.55180        1.75440        2.86730
C          2.17350        1.16430        3.01660
O          1.37370        1.57300        1.96490
I          5.97980        3.43080        3.49970
H          3.48540        2.90010        4.64160
H          4.14430        1.48490        1.99700
H          1.70240        1.52100        3.95690
H          2.23200        0.07030        3.09870
H          1.03240        3.33600        0.12740
H          1.38790        2.31060       -1.27240
