16
TSA8_9_I_NH2_I
C          2.88890        1.28530        0.81050
C          1.34100        1.35890        1.01950
I          3.50880       -0.77390        0.66580
H          3.17070        1.73270       -0.16780
N          0.74920        2.38240        0.16250
C          3.57340        2.03620        1.95760
C          3.17280        1.43040        3.31140
C          1.73620        0.87790        3.26880
O          0.94670        1.62220        2.36840
I          5.70370        2.17740        1.76360
H          3.19120        3.08020        1.93280
H          3.84010        0.60100        3.63370
H          1.30050        0.91870        4.28820
H          1.72280       -0.19620        2.97670
H          1.17760        3.31360        0.37080
H          0.91930        2.13790       -0.83980
