21
TSA8_9_OH_CCl3_Me
C          2.21020       -1.23260       -1.76450
C          1.03980       -2.14060       -1.44140
O          1.89550        0.06930       -1.33760
H          3.12600       -1.58830       -1.23360
C          1.18170       -3.28840       -0.46170
C          2.52330       -1.19790       -3.28130
C          3.66730       -0.24320       -3.54000
C          3.52480        0.84250       -4.30650
O         -0.04230       -1.91410       -1.96330
C          2.90210       -2.57910       -3.83090
H          1.61370       -0.85120       -3.82290
H          4.63480       -0.44350       -3.08750
H          2.57500        1.07990       -4.77580
H          4.36820        1.50590       -4.46820
H          2.15360        0.13230       -0.38060
Cl         2.41510       -4.44870       -1.01510
Cl         1.66460       -2.65940        1.13390
Cl        -0.35550       -4.17760       -0.25950
H          3.80370       -2.97430       -3.31480
H          3.11740       -2.50840       -4.91880
H          2.06500       -3.29580       -3.69990
