21
TSA8_9_OH_CCl3_Me
C          2.85180       -1.69450       -1.79690
C          1.39160       -1.30650       -1.36800
O          3.71070       -0.60820       -1.56510
H          3.22720       -2.57500       -1.22720
C          0.67770       -2.37840       -0.52130
C          2.85430       -2.03300       -3.29950
C          2.32500       -0.83490       -4.11420
C          1.26680       -0.05420       -3.31850
O          0.56120       -0.93090       -2.46850
C          4.22470       -2.48850       -3.80800
H          2.14430       -2.87470       -3.44680
H          3.11630       -0.11110       -4.41010
H          0.57200        0.45300       -4.01900
H          1.74130        0.75760       -2.71710
H          3.80300       -0.52610       -0.57980
Cl         0.46580       -3.90370       -1.42300
Cl         1.58860       -2.70790        0.97710
Cl        -0.93240       -1.78260       -0.04170
H          4.56300       -3.38150       -3.24040
H          4.97790       -1.68090       -3.68800
H          4.15890       -2.76030       -4.88310
