18
TSA8_9_CBr3_H_CN
C          2.37540       -1.06500       -1.08910
C          1.05260       -1.55200       -0.40590
C          2.37770        0.48420       -1.38650
H          3.16120       -1.18580       -0.30860
H          1.34910       -2.15340        0.48290
C          2.67180       -2.06270       -2.24430
C          1.49990       -2.13640       -3.23700
C          0.15760       -1.93390       -2.51240
O          0.24260       -2.41920       -1.19590
C          3.95980       -1.93610       -2.93830
H          2.70270       -3.06350       -1.75950
H          1.55920       -1.43310       -4.09410
H         -0.64170       -2.46590       -3.06540
H         -0.16050       -0.86950       -2.48910
Br         1.45080        1.45990        0.02620
Br         4.19580        1.16340       -1.36820
Br         1.60230        1.11190       -3.05560
N          4.96460       -1.87600       -3.50980
