23
TSA8_9_CHF2_CH2F_CF3
C          2.31220       -0.74480       -2.07300
C          0.80220       -0.33530       -1.98280
C          3.11140        0.04980       -1.01710
H          2.42290       -1.81670       -1.79160
C         -0.08010       -1.48730       -1.50580
C          2.78000       -0.59780       -3.55070
C          2.43910        0.79530       -4.11240
C          1.08130        1.28530       -3.58490
O          0.28540        0.18480       -3.20250
C          4.23500       -0.99680       -3.85520
H          2.14170       -1.31810       -4.11360
H          3.20440        1.57570       -3.91150
H          0.57280        1.87750       -4.37270
H          1.20990        1.98430       -2.72580
F          4.40940       -0.41390       -0.91990
F          3.12860        1.40510       -1.28790
H          2.64140       -0.10060       -0.02170
F         -1.38370       -1.04980       -1.36220
H          0.28110       -1.86200       -0.52510
H         -0.05390       -2.31610       -2.24540
F          4.49300       -2.26410       -3.36300
F          4.42860       -1.01100       -5.22510
F          5.13030       -0.09940       -3.30350
