22
TSA8_9_NH2_Me_CBr3
C          2.90150        0.08690        1.22520
C          1.88040        1.12890        1.64070
N          2.22220       -1.02290        0.55070
H          3.57180        0.53760        0.46310
C          1.88250        2.49190        1.01520
C          3.81630       -0.42550        2.39890
C          3.03450       -1.03300        3.55880
C          2.34080       -2.17210        3.46900
O          1.02500        0.85240        2.46930
C          4.81400        0.65400        2.93700
H          4.46930       -1.22310        1.97950
H          3.05880       -0.54500        4.52920
H          1.81890       -2.55320        4.34110
H          2.29740       -2.74710        2.55280
H          1.39880       -1.35070        1.10140
H          1.85350       -0.68750       -0.37000
H          2.84820        2.99960        1.21240
H          1.05920        3.11250        1.42980
H          1.73980        2.39660       -0.08120
Br         6.03810       -0.16000        4.21400
Br         5.94430        1.36680        1.52330
Br         3.97300        2.15320        3.85170
