17
TSA8_9_Br_NO2_CN
C          1.58220       -0.03830        0.01590
C          1.39250       -1.20070        0.89060
Br         1.76830        0.13690       -1.83890
H          1.52990        0.91880        0.47890
N          1.65510       -0.94100        2.27250
C          2.26400       -5.07460       -1.02470
C          2.18070       -3.74430       -1.03210
C          0.91080       -3.00570       -0.66480
O          0.96660       -2.52080        0.63520
C          3.54980       -5.69150       -1.23080
H          1.39550       -5.69440       -0.79790
H          3.08410       -3.20470       -1.26170
H          0.07840       -3.71760       -0.64830
H          0.62070       -2.24970       -1.42810
O          1.90290       -1.84340        3.01640
O          1.35370        0.23160        2.78140
N          4.60120       -6.14300       -1.39780
