17
TSA8_9_Br_NO2_CN
C          2.66180       -1.92820        0.00340
C          1.27950       -1.58240        0.63790
Br         2.89400       -0.85950       -1.61410
H          3.48570       -1.61890        0.68410
N          1.43260       -1.36360        2.05880
C          2.67960       -3.44360       -0.25660
C          1.57900       -3.77900       -1.26160
C          0.27580       -3.04640       -0.89960
O          0.28770       -2.59500        0.44110
C          3.96430       -4.01160       -0.68060
H          2.43650       -3.94780        0.70360
H          1.85890       -3.49110       -2.30320
H         -0.55060       -3.77360       -1.03740
H          0.07050       -2.19290       -1.58400
O          1.82590       -2.23920        2.76980
O          1.13750       -0.19040        2.57240
N          4.95580       -4.50580       -1.01560
