18
TSA8_9_CH2F_OH_F
C          1.83680       -0.17550        0.12270
C          1.53520       -1.34150        0.75680
C          1.88450        0.15820       -1.34410
H          2.06280        0.67970        0.75350
O          1.51360       -1.33340        2.11200
C          3.70380       -3.63640       -2.25440
C          3.10640       -3.10080       -1.18760
C          1.60570       -3.08580       -1.04490
O          1.25640       -2.55210        0.18110
F          5.05980       -3.64080       -2.33670
H          3.12000       -4.07510       -3.05670
H          3.72420       -2.67540       -0.40110
H          1.24580       -4.13490       -1.06880
H          1.09200       -2.58760       -1.88220
F          3.16470        0.55960       -1.68220
H          1.18850        1.00330       -1.52510
H          1.58250       -0.63330       -2.03090
H          1.71570       -0.54860        2.64460
