18
TSA8_9_CH2F_OH_F
C          2.60710       -0.84580       -0.65040
C          1.40870       -1.28250        0.22980
C          2.22330        0.33900       -1.54180
H          3.40630       -0.50690        0.04660
O          1.80980       -1.63820        1.52410
C          3.12200       -2.02950       -1.50290
C          2.95390       -3.31360       -0.70670
C          1.43150       -3.52700       -0.50880
O          0.66110       -2.33000       -0.35750
F          4.44260       -1.83000       -1.86490
H          2.51340       -2.14610       -2.42840
H          3.47950       -3.19700        0.26660
H          1.24200       -4.23310        0.32690
H          1.06780       -4.00910       -1.44050
F          3.31730        0.76640       -2.27330
H          1.86850        1.18290       -0.91240
H          1.40720        0.05310       -2.23990
H          1.36980       -0.97470        2.11320
