19
TSA8_9_Cl_NH2_CCl3
C          2.91300       -1.44990       -1.92100
C          1.39480       -1.43490       -1.86710
Cl         3.53330       -0.71430       -0.40720
H          3.20200       -2.52070       -1.92200
N          0.74780       -2.05120       -0.84930
C          3.49340       -0.77620       -3.21040
C          3.19110        0.71280       -3.22590
C          2.42720        1.27450       -4.16840
O          0.74100       -0.88710       -2.74260
C          5.01750       -1.02020       -3.44120
H          2.98670       -1.26880       -4.07220
H          3.61090        1.34880       -2.45240
H          1.98800        0.68130       -4.96430
H          2.23750        2.34270       -4.14630
H         -0.28210       -2.05350       -0.80890
H          1.27290       -2.53160       -0.10380
Cl         5.49970       -0.35490       -5.02850
Cl         6.07440       -0.26240       -2.21510
Cl         5.38780       -2.76690       -3.49160
