26
TSA8_9_CH2F_CF3_Et
C          2.82460        0.71690       -1.71560
C          1.55090        0.30350       -2.44010
C          2.51960        0.89100       -0.21710
H          3.55240       -0.11870       -1.78410
C          1.44590       -1.04260       -3.10620
C          3.50120        1.99720       -2.31150
C          2.60270        3.21550       -2.20260
C          2.93310        4.27500       -1.45690
O          0.58240        1.04930       -2.45110
C          3.93240        1.83800       -3.78840
H          4.42820        2.18850       -1.72420
H          1.66530        3.24440       -2.74780
H          2.26730        5.13030       -1.40640
H          3.86060        4.30090       -0.89350
F          3.67960        1.17260        0.48320
H          2.08750       -0.04830        0.19030
H          1.78880        1.71060       -0.04950
F          0.18860       -1.21280       -3.65990
F          2.38840       -1.15040       -4.10920
F          1.65910       -2.03840       -2.17080
C          5.02330        0.78410       -3.99440
H          4.35600        2.80600       -4.13750
H          3.05340        1.60030       -4.42580
H          5.92010        1.03820       -3.39050
H          5.31460        0.76220       -5.06560
H          4.67760       -0.22960       -3.71660
