26
TSA8_9_CH2F_CF3_Et
C          3.12020        0.84190       -1.46550
C          1.63850        0.72990       -1.95300
C          3.12230        0.93310        0.07030
H          3.68910       -0.08200       -1.69520
C          1.33120       -0.56850       -2.70220
C          3.81360        2.07860       -2.10650
C          2.93810        3.33080       -1.86140
C          1.43310        3.02260       -1.96110
O          1.21020        1.85110       -2.71530
C          4.08110        1.90600       -3.62940
H          4.80970        2.25270       -1.64400
H          3.25660        4.16840       -2.51900
H          0.89980        3.88140       -2.41890
H          0.99650        2.91330       -0.94180
F          4.42110        0.97760        0.54630
H          2.62630        0.03560        0.49820
H          2.58030        1.83090        0.43130
F         -0.01860       -0.61840       -2.99740
F          2.05080       -0.63050       -3.88100
F          1.65250       -1.65760       -1.91260
C          5.07130        0.78300       -3.94860
H          4.53390        2.84720       -4.01310
H          3.14480        1.73450       -4.19740
H          6.03400        0.95800       -3.42300
H          5.26470        0.76420       -5.04170
H          4.67390       -0.21040       -3.66310
