19
TSA8_9_F_Me_NH2
C          2.95110       -1.93420       -0.95570
C          1.51760       -1.51370       -0.73920
F          3.79780       -0.99360       -0.39190
H          3.11460       -2.90290       -0.43480
C          0.59100       -2.38610        0.05390
C          3.28530       -2.13700       -2.44870
C          3.21280       -0.83570       -3.22110
C          2.36870       -0.65920       -4.24150
O          1.10760       -0.45800       -1.19840
N          4.62630       -2.70920       -2.57790
H          2.56050       -2.87630       -2.86060
H          3.87240       -0.01930       -2.93940
H          1.69390       -1.44840       -4.55690
H          2.35060        0.28860       -4.77020
H          0.50980       -3.38140       -0.43100
H         -0.42150       -1.93380        0.11600
H          0.98970       -2.51300        1.08250
H          5.34660       -2.03640       -2.22830
H          4.82140       -2.91600       -3.58410
