19
TSA8_9_F_Me_NH2
C          2.24580       -0.47680       -0.14260
C          1.47700       -1.36410       -0.81200
F          2.91800        0.53070       -0.75510
H          2.33830       -0.54330        0.93730
C          0.75620       -2.44090       -0.05230
C          3.56090       -2.70000       -3.43240
C          3.44230       -1.38850       -3.17530
C          2.08540       -0.74090       -3.12760
O          1.30180       -1.35360       -2.16630
N          4.82890       -3.32980       -3.47320
H          2.67070       -3.29860       -3.60900
H          4.32700       -0.78300       -2.99590
H          1.60100       -0.87340       -4.11670
H          2.16020        0.35240       -2.94790
H          1.10780       -3.43010       -0.41380
H         -0.33470       -2.36130       -0.23470
H          0.93980       -2.38420        1.04220
H          5.69450       -2.79720       -3.30690
H          4.88920       -4.33890       -3.67040
