21
TSA8_9_CN_CH2F_CH2F
C          2.81380       -0.57560       -0.92510
C          1.75170       -1.49390       -0.22090
C          2.06080        0.65370       -1.28090
H          3.59550       -0.24520       -0.20450
C          1.73090       -1.88580        1.24400
C          3.43770       -1.11030       -2.32230
C          2.65350       -2.27430       -2.82990
C          1.45960       -2.09830       -3.37960
O          0.73990       -1.80360       -0.83300
C          4.92210       -1.41370       -2.69980
H          3.32400       -0.26980       -3.04880
H          3.06510       -3.27490       -2.71240
H          0.89230       -2.95840       -3.69540
H          1.04840       -1.09580       -3.46040
N          1.48680        1.60030       -1.61660
F          2.35210       -3.10480        1.43450
H          0.66450       -2.03240        1.55710
H          2.12830       -1.10720        1.92220
F          5.78160       -0.35230       -2.48410
H          4.93340       -1.58350       -3.81390
H          5.34090       -2.34960       -2.27770
