21
TSA8_9_CN_CH2F_CH2F
C          2.85140       -0.60170       -1.04160
C          1.63250       -1.41050       -0.42740
C          2.25770        0.72490       -1.31610
H          3.63750       -0.39050       -0.28280
C          1.70750       -1.98170        0.99910
C          3.39360       -1.13150       -2.44630
C          2.64680       -2.37200       -2.87870
C          1.17180       -2.16810       -2.61890
O          0.89280       -2.30090       -1.25020
C          4.89420       -1.38090       -2.72680
H          3.14770       -0.35930       -3.21050
H          3.00150       -3.27400       -2.33000
H          0.63730       -2.97510       -3.15340
H          0.80300       -1.19180       -3.00410
N          1.75250        1.73570       -1.56980
F          2.45600       -3.14320        1.02950
H          0.67020       -2.24160        1.32270
H          2.09560       -1.25100        1.73680
F          5.67150       -0.26090       -2.50280
H          4.97700       -1.61890       -3.81800
H          5.31440       -2.25740       -2.19070
