20
TSA8_9_CN_NO2_CBr3
C          2.63510       -1.06900       -1.17020
C          2.08220       -1.84670        0.10680
C          1.76510        0.09280       -1.49120
H          3.60340       -0.60680       -0.89160
N          1.97840       -1.29250        1.35350
C          2.80740       -1.89070       -2.55200
C          1.96280       -3.11430       -2.48900
C          0.64820       -3.04860       -2.63210
O          1.72630       -3.00930        0.01440
C          4.17220       -2.28490       -3.23100
H          2.41530       -1.23650       -3.36780
H          2.42150       -4.03960       -2.14510
H          0.06390       -3.93310       -2.42690
H          0.17570       -2.11000       -2.89680
N          1.13940        1.02230       -1.80670
O          1.57280       -1.95460        2.26720
O          2.34630       -0.05350        1.58680
Br         3.76770       -3.01760       -5.00970
Br         5.34720       -0.78520       -3.59190
Br         5.20520       -3.65400       -2.31850
