20
TSA8_9_CN_NO2_CBr3
C          1.64650       -0.05800        0.01330
C          1.52970       -1.37170        0.34240
C          1.83000        0.49890       -1.30680
H          1.67170        0.67370        0.81470
N          1.63390       -1.71330        1.71720
C          2.89800       -2.89020       -3.73040
C          2.64270       -2.62430       -2.44670
C          1.26300       -2.45660       -1.90230
O          1.38800       -2.41700       -0.52980
C          4.32150       -3.03580       -4.21100
H          2.07230       -3.01090       -4.42550
H          3.47100       -2.55470       -1.74670
H          0.64580       -3.34540       -2.18460
H          0.72880       -1.57060       -2.30730
N          1.98340        0.99760       -2.34030
O          2.16240       -2.73970        2.02590
O          1.26470       -0.87030        2.65630
Br         4.36500       -3.63630       -6.04950
Br         5.21600       -1.31830       -4.11370
Br         5.31700       -4.32140       -3.14480
