21
TSA8_9_OMe_Cl_CBr3
C          0.35150       -0.25150        1.84350
C          0.80140        0.82210        0.81310
O          1.41460       -1.14370        2.12170
H         -0.52310       -0.78070        1.40260
Cl        -0.40690        1.15850       -0.47110
C         -0.10060        0.42220        3.17240
C         -0.80650        1.73100        2.81270
C          0.24130        2.66970        2.17260
O          1.26320        2.01440        1.41790
C         -0.96710       -0.48440        4.08920
H          0.80550        0.70700        3.75580
H         -1.63740        1.51030        2.10780
H          0.75930        3.16660        3.01950
H         -0.25540        3.46280        1.57530
C          1.56660       -2.07730        1.07240
H          2.31280       -2.83560        1.38670
H          1.95750       -1.58500        0.15590
H          0.62470       -2.63210        0.86670
Br        -1.42680        0.47200        5.71730
Br        -2.63160       -1.04250        3.24760
Br        -0.00840       -2.08010        4.64280
