21
TSA8_9_CN_Me_CHF2
C          2.81580       -1.16780        1.01910
C          1.56550       -0.44830        1.55960
C          2.60160       -1.22320       -0.46370
H          3.69730       -0.54480        1.25380
C          1.61730        0.93610        2.14390
C          2.93650       -2.60360        1.68950
C          2.06760       -3.55560        0.89900
C          0.80370       -3.80610        1.19810
O          0.46880       -0.98200        1.48600
C          4.31270       -3.31040        1.89300
H          2.58460       -2.45070        2.73520
H          2.46980       -3.96010       -0.02990
H          0.34970       -3.36380        2.07340
H          0.22000       -4.41530        0.51880
N          2.36480       -1.31010       -1.57790
H          2.30710        0.98290        3.00880
H          0.60360        1.24850        2.49000
H          1.93500        1.65290        1.35870
F          4.85180       -3.82010        0.72350
F          5.24340       -2.49670        2.51210
H          4.13720       -4.18170        2.57230
