21
TSA8_9_OMe_CH2F_Br
C          1.53550        0.12920        0.02050
C          1.28430       -1.04060        0.62460
O          1.61080        0.17520       -1.33140
H          1.65050        1.03910        0.60370
C          1.17910       -1.11870        2.13280
C         -0.36230       -4.48300       -2.04950
C         -0.41600       -3.32170       -1.39090
C          0.21580       -3.13850       -0.04180
O          1.15650       -2.13920       -0.16380
Br        -1.15070       -4.64360       -3.78360
H          0.13360       -5.34730       -1.61960
H         -0.91500       -2.47130       -1.84780
H          0.70930       -4.07270        0.30200
H         -0.58430       -2.86800        0.67500
C          1.72190        1.35230       -2.03040
H          1.76240        1.12400       -3.11560
H          2.64740        1.89040       -1.73630
H          0.83380        1.99100       -1.83530
F         -0.07250       -1.54580        2.53130
H          1.36420       -0.12920        2.60340
H          1.94680       -1.82480        2.51470
