17
TSA8_9_F_CBr3_Br
C          1.80530       -0.20890       -0.09510
C          1.57660       -1.05090       -1.13140
F          2.08020        1.10990       -0.26460
H          1.74550       -0.54440        0.93100
C          1.20670       -2.51010       -0.91700
C          2.99590        0.29230       -5.39090
C          3.16170       -0.13450       -4.13500
C          2.34310        0.39960       -2.99660
O          1.63690       -0.64910       -2.43600
Br         4.06610       -0.42640       -6.80240
H          2.25540        1.04870       -5.63240
H          3.90990       -0.89290       -3.92290
H          1.62320        1.16930       -3.34930
H          3.05350        0.86310       -2.28670
Br         1.09670       -3.12160        0.93210
Br        -0.51850       -2.84490       -1.73370
Br         2.52340       -3.61860       -1.80740
