21
TSA8_9_H_OMe_CCl3
C          2.70040        1.80480        0.70850
C          1.88380        2.60110       -0.26680
H          2.05990        0.96480        1.05730
H          3.57610        1.36390        0.18490
O          2.32300        2.73340       -1.54600
C          3.18050        2.61850        1.93970
C          3.85020        1.64470        2.89020
C          3.37890        1.41280        4.11950
O          0.83510        3.11450        0.09870
C          4.16010        3.78910        1.60840
H          2.28540        3.05440        2.43880
H          4.74140        1.11460        2.56590
H          2.49160        1.91850        4.48750
H          3.88670        0.70810        4.76980
C          1.69810        3.46440       -2.53770
H          1.44080        2.78980       -3.38010
H          2.39530        4.24510       -2.90530
H          0.76950        3.96040       -2.18240
Cl         3.39720        5.07070        0.62670
Cl         4.69420        4.58810        3.11610
Cl         5.61870        3.22210        0.74270
