16
TSA8_9_CN_CN_I
C          1.66580        0.02110        0.08840
C          1.66810       -0.25220        1.42280
C          1.78750       -0.94440       -0.98980
H          1.47280        1.03110       -0.26640
C          1.39160        0.80510        2.37180
C          2.22910       -4.82330        1.46460
C          2.05030       -3.61070        0.94050
C          1.13460       -2.60300        1.56060
O          1.85830       -1.49270        1.93450
I          3.55470       -6.17470        0.53850
H          1.71040       -5.12390        2.36910
H          2.58560       -3.33920        0.04030
H          0.62590       -3.01350        2.46150
H          0.33450       -2.32460        0.84640
N          1.87390       -1.64670       -1.90830
N          1.16850        1.66130        3.11910
