19
TSA8_9_NO2_H_CBr3
C          1.87570        0.02170        0.00200
C          2.03040        1.04880        0.85450
N          1.26880       -1.21480        0.36450
H          2.27620        0.13410       -1.00010
H          2.55410        1.93430        0.50900
C          2.63820        3.68300        4.07880
C          2.87420        2.74930        3.14480
C          2.29290        1.36100        3.23870
O          1.56530        0.98700        2.12570
C          3.29120        5.03850        4.01690
H          1.98570        3.45160        4.91580
H          3.54560        2.97510        2.32190
H          1.64310        1.25470        4.13370
H          3.13730        0.65270        3.34970
O          1.22890       -2.09880       -0.43600
O          0.82830       -1.43600        1.58520
Br         2.76540        6.09810        5.55210
Br         5.22450        4.85580        4.05030
Br         2.76870        5.98570        2.40710
