19
TSA8_9_CF3_F_NH2
C          1.79330        0.01100        0.03790
C          1.09280        1.09370        0.41390
C          2.11880       -1.16920        0.92000
H          2.15380       -0.02960       -0.98610
F          0.86930        2.07510       -0.50380
C         -0.21130        3.08880        4.40750
C         -0.52780        2.13800        3.51620
C         -0.19020        2.27800        2.05940
O          0.60790        1.22340        1.67310
N         -0.54150        2.94190        5.77730
H          0.30290        3.99050        4.08730
H         -1.04610        1.24100        3.84210
H          0.33790        3.23850        1.86390
H         -1.13320        2.26370        1.47180
F          3.49150       -1.30950        0.99360
F          1.61740       -1.03670        2.20240
F          1.58260       -2.30980        0.35260
H         -1.02890        2.10170        6.12210
H         -0.29420        3.68640        6.44460
