20
TSA8_9_Me_Cl_CH2F
C          1.50860       -0.69540        2.21740
C          1.03870        0.41610        1.30520
C          1.64070       -2.00020        1.41190
H          2.52690       -0.42370        2.57420
Cl         2.06600        1.81180        1.01740
C          0.59350       -0.81030        3.47510
C         -0.83060       -1.19290        3.12450
C         -1.86400       -0.38540        3.38360
O         -0.04770        0.35520        0.75050
C          1.14840       -1.81050        4.50160
H          0.60290        0.18850        3.96930
H         -1.02480       -2.15200        2.65400
H         -1.71860        0.58170        3.85490
H         -2.87100       -0.69290        3.12100
H          0.66040       -2.32860        1.00840
H          2.06710       -2.81270        2.03370
H          2.33220       -1.84310        0.55630
F          0.37580       -1.78900        5.64990
H          2.18840       -1.53390        4.77680
H          1.14830       -2.84510        4.10060
