20
TSA8_9_Me_Cl_CH2F
C          1.86130       -0.05430        0.05960
C          1.09340        0.37470        1.07340
C          2.31120       -1.47960       -0.09470
H          2.17380        0.65390       -0.70190
Cl         0.62980        2.07990        1.10960
C         -0.13700       -1.23960        5.27030
C         -0.38730       -1.33220        3.95540
C         -0.21190       -0.15850        3.03570
O          0.68650       -0.48650        2.04280
C         -0.31510       -2.41530        6.18170
H          0.20100       -0.29980        5.69860
H         -0.73070       -2.27370        3.53480
H          0.15270        0.72980        3.59770
H         -1.19490        0.08560        2.57820
H          1.94220       -2.13530        0.72060
H          3.41980       -1.51400       -0.10350
H          1.93150       -1.87490       -1.06070
F         -1.62860       -2.84700        6.14820
H         -0.05850       -2.12210        7.22150
H          0.35490       -3.24290        5.86730
