20
TSA8_9_Me_Cl_CH2F
C          1.34800       -0.77360        2.55540
C          0.90320        0.45740        1.74240
C          1.47850       -1.97750        1.60440
H          2.36140       -0.58720        2.97470
Cl         1.18760        2.02290        2.57190
C          0.34100       -0.98420        3.71730
C         -1.08690       -1.04590        3.16100
C         -1.35170        0.20880        2.31950
O         -0.42490        0.33090        1.25050
C          0.65290       -2.21040        4.58490
H          0.40220       -0.09360        4.38260
H         -1.23330       -1.95380        2.53850
H         -1.35000        1.11960        2.95710
H         -2.37340        0.13060        1.89350
H          1.85570       -2.86970        2.14390
H          2.21470       -1.74120        0.80650
H          0.51560       -2.22940        1.11510
F         -0.23290       -2.27460        5.64600
H          1.68380       -2.13150        4.99050
H          0.56650       -3.15000        4.00110
