26
TSA8_9_Cl_Et_Et
C          3.18280       -0.60410       -1.38840
C          1.75520       -1.01040       -1.08860
Cl         3.61020        0.75220       -0.29780
H          3.84550       -1.45830       -1.13520
C          1.43160       -2.39010       -0.57450
C          3.36610       -0.28290       -2.90010
C          2.63510        0.98320       -3.30370
C          1.63110        0.97360       -4.18600
O          0.84720       -0.20690       -1.24680
C          4.84550       -0.23930       -3.36440
H          2.93410       -1.14830       -3.45450
H          2.92990        1.93240       -2.86700
H          1.29820        0.05070       -4.65050
H          1.13260        1.90090       -4.44900
C          1.81030       -3.47300       -1.58360
H          0.34050       -2.46840       -0.37450
H          1.97440       -2.56160        0.37950
H          1.26030       -3.31860       -2.53640
H          1.54320       -4.46970       -1.17460
H          2.90100       -3.46530       -1.79030
C          5.72200        0.86470       -2.77000
H          4.85060       -0.11260       -4.46960
H          5.32190       -1.21880       -3.14050
H          5.30250        1.86850       -2.98570
H          6.73260        0.80710       -3.22650
H          5.85250        0.73190       -1.67960
