26
TSA8_9_Cl_Et_Et
C          3.14280       -0.46110       -1.44960
C          1.63140       -0.84480       -1.33330
Cl         3.34600        1.15860       -0.71280
H          3.76840       -1.15920       -0.85260
C          1.39490       -2.24780       -0.75060
C          3.54260       -0.50490       -2.94300
C          2.65440        0.45350       -3.76340
C          1.23400        0.52200       -3.17360
O          0.90110       -0.70190       -2.55440
C          5.05190       -0.39100       -3.26820
H          3.26960       -1.52610       -3.28800
H          3.03580        1.49270       -3.83230
H          0.51030        0.75730       -3.98060
H          1.14500        1.35370       -2.43730
C          1.93680       -3.37520       -1.63100
H          0.30110       -2.39150       -0.62180
H          1.86680       -2.31120        0.25390
H          1.46740       -3.34270       -2.63680
H          1.70270       -4.35350       -1.16210
H          3.03860       -3.30070       -1.73480
C          5.73310        0.93240       -2.91670
H          5.17800       -0.55680       -4.36080
H          5.59110       -1.20700       -2.73990
H          5.25320        1.78540       -3.43660
H          6.79380        0.88690       -3.24180
H          5.73630        1.10550       -1.82420
