16
TSA8_9_Cl_NO2_F
C          2.82900       -0.05160       -1.35030
C          1.34720       -0.08490       -1.68400
Cl         3.03290        0.29450        0.39270
H          3.26260       -1.05840       -1.52210
N          0.76020       -1.19560       -2.21570
C          3.68540        0.91490       -2.20750
C          3.38010        2.38790       -2.05410
C          2.28920        2.97030       -2.55940
O          0.65940        0.89570       -1.43590
F          5.00820        0.72500       -1.84240
H          3.60480        0.64130       -3.28210
H          4.10720        3.01700       -1.54820
H          1.55170        2.40660       -3.11840
H          2.14020        4.03790       -2.43380
O         -0.41110       -1.19920       -2.45210
O          1.46700       -2.27350       -2.48170
