16
TSA8_9_Cl_NO2_F
C          1.95000       -0.03560       -0.31330
C          1.40620        0.02440       -1.55890
Cl         2.71580        1.27040        0.58480
H          1.91550       -0.96990        0.23640
N          0.79960       -1.14880       -2.10500
C          4.02750        1.52340       -3.56950
C          3.56340        2.08960       -2.45050
C          2.09160        2.33000       -2.25360
O          1.38580        1.14510       -2.34620
F          5.35980        1.31420       -3.72670
H          3.34730        1.22370       -4.36180
H          4.26170        2.38240       -1.67270
H          1.74240        3.00660       -3.06180
H          1.87810        2.84740       -1.29770
O          0.32020       -1.11250       -3.19820
O          0.77340       -2.28160       -1.43360
