16
TSA8_9_Cl_NO2_F
C          2.81690        0.08190       -1.28210
C          1.29730        0.19200       -1.63390
Cl         3.16470        0.92440        0.25970
H          3.10660       -0.97760       -1.11400
N          0.81910       -1.07040       -2.16810
C          3.62870        0.67860       -2.43220
C          3.23800        2.14650       -2.66450
C          1.76450        2.39370       -2.29770
O          0.99040        1.24460       -2.55790
F          4.99050        0.56790       -2.21280
H          3.37180        0.10410       -3.34940
H          3.85150        2.85500       -2.06650
H          1.38280        3.25610       -2.88180
H          1.65380        2.68110       -1.22750
O          0.33690       -1.12910       -3.25890
O          0.85890       -2.15250       -1.42100
