20
TSA8_9_CF3_Br_CF3
C          1.87180       -0.09050        0.04130
C          1.10220       -0.03940        1.14360
C          2.33880       -1.35240       -0.64180
H          2.17880        0.84680       -0.41290
Br         0.61290        1.70040        1.81270
C         -0.25350       -2.89890        4.57060
C         -0.42010       -2.60680        3.26830
C         -0.26980       -1.20190        2.75700
O          0.68510       -1.17380        1.76240
C         -0.39680       -4.28720        5.13150
H         -0.00950       -2.10510        5.27140
H         -0.67720       -3.38470        2.55580
H          0.01850       -0.51570        3.58330
H         -1.24300       -0.86910        2.33720
F          3.72030       -1.36160       -0.67230
F          1.90090       -2.50200       -0.01020
F          1.86360       -1.35500       -1.94040
F         -0.68470       -5.21790        4.14770
F          0.78320       -4.64590        5.75440
F         -1.41740       -4.29350        6.06430
