17
TSA8_9_Br_H_Me
C          2.92040       -1.73200       -0.25010
C          1.45500       -1.39210       -0.20520
Br         3.96380       -0.09400       -0.06670
H          3.13500       -2.36180        0.64070
H          0.83910       -1.78140        0.59910
C          3.28780       -2.54830       -1.51640
C          3.08960       -1.74710       -2.78630
C          2.22370       -2.12070       -3.73340
O          0.94700       -0.67480       -1.05300
C          4.73880       -3.04200       -1.45470
H          2.63870       -3.45370       -1.53150
H          3.66780       -0.84090       -2.93800
H          1.62450       -3.01960       -3.62580
H          2.11160       -1.52090       -4.63060
H          4.89430       -3.65990       -0.54440
H          5.45430       -2.19310       -1.43700
H          4.96320       -3.67240       -2.34170
