17
TSA8_9_Me_H_H
C          1.65090       -1.18970        1.33990
C          0.87100        0.11700        1.55960
C          1.35920       -1.76120       -0.05510
H          2.74220       -0.98150        1.38500
H          1.20020        0.65500        2.47790
C          1.28300       -2.16870        2.46960
C         -0.23660       -2.31650        2.58060
C         -0.86320       -0.92020        2.69920
O         -0.52850       -0.11540        1.57990
H          1.76830       -3.15700        2.32130
H          1.65260       -1.75180        3.43260
H         -0.64550       -2.83410        1.68770
H         -0.55870       -0.42520        3.64950
H         -1.96660       -1.03220        2.73980
H          0.28100       -1.97480       -0.20280
H          1.93420       -2.69930       -0.20780
H          1.67350       -1.03090       -0.83110
