27
TSA8_9_Et_CCl3_OMe
C          2.70240       -1.77210       -0.46900
C          1.53870       -2.33660        0.33530
C          2.28780       -0.39760       -1.05030
H          3.54130       -1.56680        0.23350
C          1.63490       -2.51190        1.83810
C          3.23760       -2.82140       -1.49820
C          2.21570       -3.28560       -2.52520
C          1.73230       -2.51080       -3.50070
O          0.50200       -2.63160       -0.24330
O          3.67300       -3.95030       -0.75490
H          4.09810       -2.35780       -2.03360
H          1.88030       -4.31860       -2.48860
H          1.01660       -2.91900       -4.20650
H          2.04720       -1.48430       -3.62890
C          3.43500        0.33940       -1.74490
H          1.95300        0.24780       -0.20870
H          1.42430       -0.49500       -1.73710
H          4.28040        0.48410       -1.03920
H          3.08050        1.33670       -2.08030
H          3.79510       -0.21030       -2.63670
Cl         2.96040       -3.62660        2.25640
Cl         1.94160       -0.93770        2.61520
Cl         0.12410       -3.17680        2.52400
C          4.71920       -4.62500       -1.42270
H          5.01370       -5.50260       -0.81200
H          5.62010       -3.98010       -1.51940
H          4.38600       -5.01060       -2.41110
