18
TSA8_9_NH2_CN_OH
C          1.28910       -1.57650       -1.23250
C          2.15320       -2.28140       -0.21680
N          2.06740       -0.54090       -1.92040
H          0.47340       -1.07230       -0.66390
C          1.75130       -2.29410        1.16920
C          0.66940       -2.59760       -2.24170
C         -0.83020       -2.42340       -2.32510
C         -1.60560       -2.68830       -1.26590
O          3.14160       -2.90840       -0.56590
O          1.25070       -2.44940       -3.51350
H          0.84750       -3.64250       -1.89130
H         -1.29230       -2.10210       -3.25330
H         -1.16910       -3.03380       -0.33130
H         -2.68170       -2.57430       -1.32770
H          2.43450        0.14350       -1.21930
H          1.44570       -0.01700       -2.57790
N          1.42350       -2.31290        2.27930
H          0.93160       -3.20840       -4.06940
