19
TSA8_9_Br_CF3_NO2
C          1.91170        0.21500       -0.08170
C          1.48320        1.50040       -0.12780
Br         2.25110       -0.82120        1.49580
H          2.05000       -0.34420       -1.00040
C          1.17610        2.15570       -1.45560
C          3.26220        4.43930        0.96370
C          3.37010        3.23040        1.54330
C          2.14950        2.49740        2.02760
O          1.27190        2.26900        0.97990
N          4.39390        5.16320        0.49320
H          2.27710        4.88430        0.84770
H          4.34200        2.76510        1.67450
H          1.63890        3.12690        2.78620
H          2.44570        1.56630        2.53410
F         -0.14350        2.56600       -1.46490
F          1.98810        3.26300       -1.61210
F          1.38160        1.30690       -2.53060
O          5.49750        4.71780        0.59430
O          4.22070        6.34130       -0.06530
