23
TSA8_9_NH2_OMe_CBr3
C          3.19380       -0.30960        1.70350
C          2.32130        0.82020        2.20890
N          2.50510       -1.03270        0.62950
H          4.10180        0.14340        1.25230
O          2.76160        2.09930        2.09170
C          3.67110       -1.31250        2.80540
C          2.49670       -2.01930        3.46150
C          2.30030       -3.33550        3.33730
O          1.22660        0.58300        2.70010
C          4.60840       -0.69660        3.89030
H          4.28970       -2.06740        2.26820
H          1.79020       -1.44930        4.05550
H          1.44990       -3.80320        3.82300
H          2.97670       -3.95400        2.75630
H          1.60390       -1.43690        0.97330
H          2.29260       -0.37430       -0.15560
C          2.06530        3.19250        2.56290
H          2.63530        4.11500        2.33130
H          1.93940        3.11670        3.66430
H          1.06900        3.25290        2.07540
Br         5.28300       -2.10150        5.05400
Br         6.17460        0.13420        3.09240
Br         3.75270        0.61880        5.04280
