15
TSA8_9_Cl_Cl_OH
C          1.81680       -0.06400       -2.00980
C          0.71560       -1.06740       -2.23180
Cl         1.15520        1.24170       -0.98270
H          2.64140       -0.55300       -1.44640
Cl         0.88600       -2.71590       -1.65210
C          2.37800        0.43100       -3.36880
C          3.52910        1.40780       -3.22840
C          3.38670        2.65490       -2.76730
O         -0.30790       -0.74340       -2.81590
O          2.83660       -0.69110       -4.07880
H          1.55620        0.91810       -3.94670
H          4.51850        1.09630       -3.55250
H          2.42330        3.04700       -2.46630
H          4.24890        3.31110       -2.71000
H          2.88980       -0.42770       -5.03490
