23
TSA8_9_Me_Me_CCl3
C          1.81750       -0.05670        0.10420
C          1.47570       -0.66060        1.27990
C          1.95790       -0.62240       -1.28220
H          2.01200        1.01230        0.13300
C          1.38570        0.19420        2.51540
C          3.58720       -4.35080        1.11630
C          2.93700       -3.30010        0.59080
C          1.44920       -3.12040        0.75260
O          1.19690       -1.98410        1.49130
C          5.08120       -4.50310        0.98740
H          3.02880       -5.10680        1.66200
H          3.49900       -2.54310        0.05350
H          1.02510       -3.97990        1.31540
H          0.90200       -3.11450       -0.20630
H          1.75950       -1.68820       -1.40090
H          2.99010       -0.43550       -1.64150
H          1.25190       -0.08520       -1.95180
H          2.10300       -0.18770        3.27240
H          0.35830        0.13180        2.93050
H          1.62120        1.26320        2.32580
Cl         5.61130       -5.99580        1.80500
Cl         5.55630       -4.59890       -0.72790
Cl         5.90920       -3.12170        1.75210
