19
TSA8_9_NO2_Br_CH2F
C          1.55160       -1.63930        1.76580
C          1.29550       -0.16550        1.54500
N          1.59450       -2.32020        0.47450
H          2.55720       -1.73740        2.23250
Br         2.60220        1.12720        2.07210
C          0.53010       -2.22500        2.79440
C         -0.90960       -2.14550        2.32010
C         -1.82430       -1.41450        2.96590
O          0.26370        0.21610        1.01460
C          0.87630       -3.66860        3.19680
H          0.64050       -1.61580        3.72140
H         -1.22390       -2.69360        1.43920
H         -1.56750       -0.84670        3.85490
H         -2.84610       -1.38040        2.60220
O          2.40180       -1.98050       -0.33750
O          0.77780       -3.30800        0.17900
F          0.02710       -4.09550        4.20310
H          1.91780       -3.71310        3.58050
H          0.78920       -4.37280        2.34660
