20
TSA8_9_Br_CF3_CBr3
C          2.92570       -0.99640       -1.61330
C          1.60780       -1.72670       -1.74190
Br         2.57760        0.73990       -0.80780
H          3.54060       -1.50150       -0.84140
C          1.29810       -2.91290       -0.86570
C          3.76440       -0.90420       -2.93980
C          3.00950       -0.25400       -4.09780
C          2.61010        1.02150       -4.11650
O          0.76400       -1.32130       -2.52830
C          4.35550       -2.27630       -3.40460
H          4.65310       -0.27280       -2.71470
H          2.79780       -0.84200       -4.98640
H          2.08900        1.40770       -4.98680
H          2.80410        1.70230       -3.30090
F          0.03640       -3.40660       -1.14860
F          2.22630       -3.91570       -1.06670
F          1.33760       -2.52490        0.46070
Br         5.57610       -1.99490       -4.89500
Br         5.42400       -3.11780       -2.01400
Br         3.02470       -3.56150       -4.01430
