20
TSA8_9_Br_CF3_CBr3
C          1.98060       -0.22170       -0.11820
C          1.48410       -0.90710       -1.16990
Br         2.34070        1.66190       -0.15300
H          2.16970       -0.71650        0.82810
C          1.15490       -2.37880       -1.05840
C          4.26120       -1.17150       -3.68340
C          2.93570       -1.00900       -3.83380
C          2.20580        0.15890       -3.22880
O          1.23010       -0.29020       -2.35550
C          5.05640       -2.32400       -4.25370
H          4.81650       -0.43450       -3.10910
H          2.34070       -1.72030       -4.39300
H          1.71460        0.71610       -4.05330
H          2.90110        0.85650       -2.72080
F         -0.18670       -2.56470       -1.33310
F          1.90140       -3.08960       -1.97840
F          1.42100       -2.88280        0.20360
Br         6.43400       -1.60990       -5.40950
Br         5.90670       -3.26320       -2.79140
Br         4.03350       -3.62660       -5.28060
