20
TSA8_9_Br_CF3_CBr3
C          3.26320       -0.96830       -1.35100
C          1.71600       -1.03290       -1.37720
Br         3.70480        0.61840       -0.30650
H          3.68540       -1.80290       -0.75360
C          1.04240       -2.40710       -1.51150
C          3.91410       -0.85950       -2.76210
C          2.84980       -0.58970       -3.83380
C          1.81900        0.41330       -3.30000
O          1.07360       -0.03710       -2.16980
C          4.86420       -2.03040       -3.13140
H          4.56530        0.04140       -2.75710
H          2.32730       -1.50920       -4.15090
H          1.10440        0.62320       -4.12250
H          2.32760        1.36700       -3.04340
F         -0.29350       -2.27760       -1.18060
F          1.11880       -2.91070       -2.79120
F          1.62250       -3.30400       -0.63350
Br         5.67970       -1.71850       -4.86820
Br         6.32070       -2.15530       -1.84980
Br         3.98470       -3.75920       -3.19210
