23
TSA8_9_CBr3_Me_CF3
C          1.08680       -1.55690        1.16200
C          2.25790       -2.54480        1.35170
C          1.52630       -0.05680        1.34960
H          0.78340       -1.63390        0.09340
C          3.53690       -2.44510        0.56900
C         -0.23440       -1.96260        1.94280
C         -0.70940       -3.33730        1.49740
C         -1.86390       -3.50800        0.84190
O          2.16580       -3.47640        2.13490
C         -0.21880       -1.90110        3.49400
H         -1.02230       -1.24670        1.63290
H         -0.11600       -4.21830        1.71450
H         -2.50630       -2.66760        0.59800
H         -2.17570       -4.50360        0.54150
Br         0.03420        1.19570        1.32240
Br         2.56390        0.25170        2.96890
Br         2.61830        0.55340       -0.14440
H          4.21390       -3.29060        0.81870
H          4.08150       -1.51670        0.82610
H          3.31900       -2.47940       -0.51830
F          0.73030       -2.73560        4.04910
F         -0.00040       -0.61450        3.93650
F         -1.45880       -2.28820        3.97310
