23
TSA8_9_CBr3_Me_CF3
C          0.78050       -1.46170        1.17270
C          1.77840       -2.67170        1.07290
C          1.37900       -0.05650        1.53770
H          0.38160       -1.30620        0.14660
C          3.10680       -2.40290        0.37240
C         -0.44500       -1.94710        2.04250
C         -0.85210       -3.39460        1.65580
C         -0.20090       -3.83370        0.35000
O          1.21440       -3.84530        0.47430
C         -0.28570       -1.89520        3.58530
H         -1.30330       -1.28970        1.78540
H         -0.48760       -4.12950        2.41000
H         -0.52520       -3.21060       -0.51080
H         -0.53790       -4.86890        0.13580
Br        -0.02120        1.27810        1.76240
Br         2.52650       -0.06580        3.11210
Br         2.43640        0.68320        0.07660
H          3.71980       -3.32860        0.39050
H          3.69000       -1.63090        0.90810
H          2.93930       -2.11200       -0.68630
F          0.81370       -2.63380        3.98810
F         -0.15880       -0.60150        4.04460
F         -1.41660       -2.42290        4.18710
