19
TSA8_9_NH2_Br_CH2F
C          2.00370        1.14580        2.19610
C          0.66680        1.85000        2.14870
N          1.95680       -0.06640        1.37300
H          2.77290        1.82590        1.76690
Br         0.54090        3.62010        1.43580
C          2.41850        0.78760        3.64750
C          3.77120        0.10900        3.63600
C          3.94170       -1.14400        4.06790
O         -0.34190        1.29840        2.56070
C          2.48820        2.02770        4.55640
H          1.65330        0.09970        4.07460
H          4.63240        0.65550        3.26090
H          3.10860       -1.72750        4.44670
H          4.92810       -1.59550        4.04040
H          1.72040        0.18700        0.38570
H          1.22700       -0.72320        1.73560
F          3.41100        2.94270        4.07820
H          2.78060        1.72530        5.58500
H          1.49560        2.52070        4.62210
