19
TSA8_9_NH2_Br_CH2F
C          1.77940        0.07140        0.09520
C          1.45940        1.06490        0.95380
N          2.07170       -1.26410        0.47940
H          1.77870        0.29580       -0.96740
Br         0.97600        2.76090        0.21310
C          2.72850        1.06880        5.44540
C          2.87580        1.26200        4.12710
C          2.33690        0.29480        3.11410
O          1.42910        0.95770        2.31080
C          3.27370        2.05290        6.43510
H          2.20630        0.19100        5.81670
H          3.39940        2.14360        3.76630
H          1.82640       -0.55870        3.61080
H          3.20300       -0.08150        2.52920
H          2.30300       -1.95370       -0.24960
H          1.97720       -1.60240        1.44420
F          4.64570        2.15590        6.29320
H          3.04190        1.71380        7.46620
H          2.80970        3.04870        6.27230
