17
TSA8_9_Br_F_CF3
C          1.82230       -0.54990        2.29940
C          0.52180        0.08060        2.71580
Br         1.66350       -1.04420        0.42020
H          2.62960        0.21050        2.37910
F          0.49930        1.37260        3.13550
C          2.19060       -1.78120        3.17070
C          3.48200       -2.39060        2.66520
C          3.54170       -3.64390        2.20370
O         -0.51830       -0.55840        2.67870
C          2.36730       -1.42400        4.66420
H          1.36850       -2.52830        3.09080
H          4.38930       -1.79270        2.67640
H          2.65910       -4.27540        2.17420
H          4.48480       -4.04660        1.84930
F          3.36220       -0.47410        4.82340
F          1.19040       -0.93270        5.19920
F          2.71700       -2.55880        5.37610
