17
TSA8_9_Br_F_CF3
C          1.76530        0.03680        0.17070
C          1.48760       -0.39240        1.40760
Br         1.91440       -1.17040       -1.31070
H          1.90850        1.09690       -0.01280
F          1.38000        0.50490        2.42230
C          2.17800       -2.28340        4.45680
C          2.91570       -2.22160        3.33880
C          2.32980       -2.56170        1.99560
O          1.29720       -1.71080        1.65610
C          2.77030       -1.96840        5.79900
H          1.13330       -2.57770        4.39830
H          3.96320       -1.93820        3.39450
H          1.94380       -3.60260        2.02980
H          3.12300       -2.51540        1.21690
F          3.22600       -0.66290        5.81880
F          1.80840       -2.12620        6.78020
F          3.82340       -2.82620        6.06040
