24
TSA8_9_Et_CN_CH2F
C          2.39840        1.73900        0.18640
C          1.44590        1.62750       -1.00280
C          2.18190        0.50530        1.13180
H          3.39870        1.67320       -0.30080
C          1.58370        0.51790       -1.91670
C          2.26580        3.14520        0.89400
C          1.08610        3.20560        1.84940
C         -0.14970        3.55450        1.48490
O          0.67470        2.52350       -1.30310
C          3.53000        3.64880        1.61040
H          2.13340        3.91140        0.09600
H          1.24600        2.91650        2.88520
H         -0.38880        3.83880        0.46930
H         -0.94530        3.54460        2.22310
C          3.46040       -0.09570        1.70870
H          1.72000       -0.33870        0.57490
H          1.45990        0.73820        1.93920
H          4.06120       -0.54390        0.88620
H          3.18180       -0.91270        2.41160
H          4.07540        0.64170        2.24790
N          1.69280       -0.37090       -2.64910
F          3.85300        2.88210        2.71000
H          3.35650        4.69260        1.95930
H          4.38830        3.67430        0.90500
