24
TSA8_9_Et_CN_CH2F
C          1.60690        0.01250       -0.10770
C          1.34650        1.03480       -0.96810
C          1.74950       -0.04300        1.39770
H          1.75830       -0.96710       -0.55530
C          1.35260        0.68470       -2.36470
C          2.37560        4.66740        1.50650
C          2.13910        3.39260        1.16870
C          0.85560        2.97480        0.51000
O          1.11380        2.35080       -0.68700
C          3.64820        5.06100        2.18930
H          1.63460        5.43570        1.30340
H          2.88490        2.63680        1.38460
H          0.21890        3.86320        0.30350
H          0.23610        2.32700        1.15400
C          3.20250       -0.40440        1.67160
H          1.08480       -0.84270        1.79970
H          1.51540        0.87220        1.96150
H          3.47140       -1.33690        1.12870
H          3.38610       -0.55310        2.75410
H          3.85120        0.41930        1.30150
N          1.35430        0.40040       -3.48760
F          3.76410        4.38100        3.38840
H          3.63370        6.15150        2.39400
H          4.52070        4.82470        1.54430
