21
TSA8_9_Me_OH_CH2F
C          1.84370       -0.17890       -0.00120
C          1.50940       -1.49410       -0.13760
C          1.92250        0.92970       -1.01710
H          2.08530        0.16000        1.00240
O          1.49440       -2.25490        0.98240
C          3.33390       -2.49740       -3.89080
C          2.74920       -1.68270       -3.00020
C          1.29410       -1.82560       -2.62610
O          1.17590       -2.15030       -1.29060
C          4.78520       -2.35280       -4.23340
H          2.76190       -3.28450       -4.37400
H          3.34410       -0.90920       -2.52600
H          0.84020       -2.65580       -3.20730
H          0.68870       -0.93620       -2.87860
H          1.67030        0.67370       -2.04800
H          2.95440        1.33790       -1.01940
H          1.22810        1.73830       -0.70730
H          1.71490       -1.91610        1.86290
F          5.02260       -1.10240       -4.77420
H          5.07380       -3.12780       -4.97350
H          5.40270       -2.48350       -3.31950
