19
TSA8_9_OH_Cl_OMe
C          1.73060        0.07210        0.18770
C          1.34820       -0.00510        1.47870
O          2.12990       -1.00260       -0.51950
H          1.70860        1.03820       -0.30980
Cl         0.82900        1.47440        2.27080
C          4.04640       -3.46690        1.59230
C          3.33550       -2.35430        1.84900
C          1.83270       -2.39710        1.91510
O          1.32080       -1.14950        2.22400
O          5.40690       -3.49060        1.53300
H          3.51850       -4.40050        1.42480
H          3.83530       -1.40590        2.01980
H          1.54290       -3.09930        2.72470
H          1.39010       -2.77670        0.96960
H          2.38560       -0.91520       -1.44810
C          6.24490       -2.41470        1.74660
H          7.29750       -2.74600        1.63420
H          6.10670       -2.01970        2.77560
H          6.04310       -1.61560        1.00140
