21
TSA8_9_NO2_Me_NO2
C          1.96420        0.12400       -0.02040
C          1.53530        1.20080       -0.75450
N          2.01930       -0.06650        1.39560
H          2.31100       -0.73280       -0.59490
C          1.55480        1.06580       -2.25640
C          3.10890        4.56540        1.37810
C          2.57000        3.33680        1.28190
C          1.13910        3.12890        0.85030
O          1.09040        2.42690       -0.33530
N          4.46140        4.77180        1.77310
H          2.50150        5.43580        1.14460
H          3.17540        2.46640        1.50950
H          0.65630        4.11220        0.66570
H          0.50830        2.66430        1.62490
O          2.49200       -1.08040        1.81230
O          1.44300        0.74210        2.24740
H          2.21620        1.84860       -2.68360
H          0.52690        1.21230       -2.64950
H          1.91990        0.07790       -2.61000
O          5.17550        3.85150        2.03670
O          4.93500        5.99680        1.84070
