21
TSA8_9_NO2_Me_NO2
C          2.83200        1.75860        0.20970
C          1.43330        1.65470       -0.48130
N          2.89610        0.82620        1.32670
H          3.63710        1.49540       -0.51590
C          1.54520        1.20590       -1.93560
C          3.07560        3.22890        0.64310
C          1.89960        3.75910        1.48120
C          0.55630        3.24410        0.93380
O          0.69000        2.86790       -0.42080
N          4.34310        3.45990        1.31740
H          3.08060        3.82360       -0.29880
H          1.96570        3.52230        2.56500
H         -0.21040        4.03860        1.04050
H          0.17710        2.38450        1.53360
O          3.70970       -0.04850        1.32410
O          2.05100        0.90980        2.33100
H          2.11040        1.95980       -2.52480
H          0.53080        1.09370       -2.37160
H          2.06700        0.22760       -1.99400
O          5.10060        2.56390        1.53990
O          4.68550        4.68670        1.64790
