17
TSA8_9_CH2F_F_F
C          1.73740        1.06910       -1.87840
C          1.21570       -0.36450       -1.67110
C          1.53050        1.89840       -0.59880
H          2.83150        1.04210       -2.07540
F          1.61840       -1.21820       -2.68810
C          1.02430        1.67090       -3.10570
C         -0.49320        1.54430       -2.95890
C         -0.84200        0.07660       -2.67640
O         -0.19460       -0.39270       -1.50300
F          1.38490        2.99360       -3.29540
H          1.32650        1.09720       -4.00950
H         -0.86330        2.18320       -2.13010
H         -0.59640       -0.56640       -3.55110
H         -1.93950        0.00120       -2.52990
F          2.23670        1.33080        0.44720
H          0.46160        1.95280       -0.30850
H          1.90770        2.93150       -0.75220
