21
TSA8_9_CN_CHF2_CHF2
C          2.83760        0.50580       -1.44050
C          1.57670       -0.32630       -1.72380
C          2.57700        1.15590       -0.12990
H          3.68790       -0.19740       -1.33870
C          1.59270       -1.83270       -1.65640
C          3.08010        1.56680       -2.60560
C          2.30290        2.81150       -2.25010
C          1.05190        3.01390       -2.62380
O          0.51040        0.22550       -1.95410
C          4.50860        2.03730       -3.03130
H          2.70400        1.06950       -3.52870
H          2.74820        3.50090       -1.52960
H          0.55520        2.30950       -3.27460
H          0.52300        3.86650       -2.21710
N          2.31390        1.63230        0.89500
F          0.32200       -2.35010       -1.86590
F          2.45100       -2.35330       -2.60340
H          1.92250       -2.13830       -0.64220
F          5.08430        2.93640       -2.14930
F          5.37520        0.98360       -3.24590
H          4.40210        2.57690       -4.00630
