21
TSA8_9_CN_CHF2_CHF2
C          1.66170       -0.03190       -0.07560
C          1.43420       -0.36310       -1.37310
C          1.84170        1.28240        0.48430
H          1.65110       -0.84050        0.65190
C          1.43340       -1.80710       -1.72820
C          3.39210        2.47060       -3.80890
C          2.84190        2.02970       -2.67190
C          1.36660        1.82250       -2.54900
O          1.14710        0.48210       -2.40170
C          4.86450        2.72470       -3.92860
H          2.76560        2.66610       -4.67270
H          3.46800        1.79120       -1.81880
H          0.83970        2.14900       -3.47760
H          0.93760        2.40740       -1.71290
N          1.98850        2.32420        0.96500
F          0.13310       -2.21330       -1.75120
F          1.99470       -2.00530       -2.98260
H          2.01660       -2.40570       -0.99160
F          5.23430        3.71700       -3.03890
F          5.59220        1.57720       -3.66990
H          5.08950        3.07190       -4.95840
