21
TSA8_9_CN_CHF2_CHF2
C          2.83980        0.62470       -1.37430
C          1.41360        0.04440       -1.64330
C          2.62150        1.38970       -0.12650
H          3.55580       -0.18930       -1.13010
C          1.41310       -1.47070       -1.90290
C          3.22770        1.43830       -2.67470
C          2.26870        2.61000       -2.75470
C          0.82850        2.14350       -2.55270
O          0.69920        0.73190       -2.67880
C          4.62190        1.97150       -3.09800
H          3.01700        0.73690       -3.51180
H          2.53790        3.36660       -1.97340
H          0.26100        2.64170       -3.36250
H          0.41370        2.49900       -1.58410
N          2.41500        2.01910        0.82840
F          0.11140       -1.92920       -1.98930
F          2.08340       -1.77990       -3.07270
H          1.90450       -1.99840       -1.05680
F          5.10790        2.98810       -2.29910
F          5.55970        0.96480       -3.22680
H          4.48820        2.40310       -4.12640
