20
TSA8_9_Cl_CF3_CH2F
C          2.72900        1.65550       -1.97080
C          1.35980        1.32220       -1.28760
Cl         4.05730        1.31930       -0.81510
H          2.90850        0.98230       -2.83680
C          0.41090        0.57470       -2.23250
C          2.70730        3.12780       -2.42730
C          2.44790        4.05680       -1.22410
C          1.57320        3.36270       -0.16630
O          0.67190        2.47070       -0.78300
C          3.94170        3.56000       -3.23130
H          1.83380        3.22650       -3.10840
H          3.37410        4.39910       -0.71370
H          1.02090        4.12930        0.41470
H          2.19520        2.81300        0.57600
F         -0.75770        0.26740       -1.56040
F          0.10420        1.35480       -3.33300
F          0.99550       -0.60510       -2.65760
F          5.09290        3.50560       -2.46590
H          3.80560        4.60230       -3.59080
H          4.06450        2.90070       -4.11660
