26
TSA8_9_Et_CCl3_CH2F
C          1.65270       -0.14420        0.05300
C          1.36520       -1.46950       -0.08160
C          1.80570        0.86160       -1.06260
H          1.75610        0.28600        1.04110
C          1.14110       -2.36980        1.12450
C          3.94390       -3.68800       -2.57400
C          2.63730       -3.39140       -2.64860
C          2.12580       -2.01140       -2.35170
O          1.24570       -2.09150       -1.29030
C          4.46180       -5.06750       -2.84910
H          4.66440       -2.92120       -2.30150
H          1.91720       -4.15980       -2.91650
H          1.59550       -1.62240       -3.24600
H          2.98120       -1.34350       -2.11610
C          3.20970        1.45750       -1.05690
H          1.06640        1.67420       -0.89660
H          1.58760        0.44380       -2.06060
H          3.42150        1.94320       -0.08010
H          3.29340        2.22140       -1.85870
H          3.96780        0.66710       -1.23900
Cl         2.32540       -3.70140        1.07250
Cl         1.28860       -1.58630        2.72830
Cl        -0.49320       -3.07100        1.02250
F          5.11010       -5.54190       -1.72390
H          5.18290       -5.02500       -3.69170
H          3.64430       -5.77040       -3.11500
