22
TSA8_9_H_Et_NH2
C          2.10500       -0.31250       -2.01570
C          1.07100       -1.40750       -1.98810
H          1.66690        0.57540       -1.51320
H          3.00650       -0.62170       -1.44010
C          1.36700       -2.71060       -1.28430
C          2.52030        0.03760       -3.45950
C          3.49110        1.20030       -3.48340
C          3.15240        2.41370       -3.03470
O         -0.01020       -1.22070       -2.52960
N          3.11870       -1.13620       -4.10120
H          1.61700        0.33380       -4.03840
H          4.48890        1.05870       -3.88960
H          2.16300        2.60930       -2.63300
H          3.86920        3.22740       -3.07440
C          0.19620       -3.69340       -1.33050
H          1.60870       -2.49750       -0.22150
H          2.25120       -3.18270       -1.76380
H         -0.69420       -3.25360       -0.83180
H          0.47310       -4.62840       -0.79990
H         -0.05840       -3.94340       -2.38270
H          3.99840       -1.40990       -3.60390
H          3.35400       -0.90980       -5.09530
