22
TSA8_9_H_Et_NH2
C          3.11060       -0.80630       -2.09710
C          1.60990       -0.89730       -1.67190
H          3.56700        0.10640       -1.65640
H          3.68770       -1.67740       -1.71720
C          1.14760       -2.36300       -1.63180
C          3.17440       -0.68520       -3.62330
C          2.42540        0.58930       -4.07200
C          1.34650        0.98940       -3.05040
O          0.72210       -0.15820       -2.52020
N          4.55440       -0.68570       -4.10500
H          2.65200       -1.56860       -4.04990
H          3.09460        1.46970       -4.18920
H          0.59630        1.64340       -3.54060
H          1.78580        1.59070       -2.22050
C         -0.30250       -2.48600       -1.17090
H          1.78830       -2.92270       -0.91610
H          1.24580       -2.82870       -2.63520
H         -0.42780       -2.03630       -0.16320
H         -0.58590       -3.55860       -1.12310
H         -0.98350       -1.97790       -1.88640
H          5.06850        0.14210       -3.72710
H          4.55720       -0.63690       -5.14960
