22
TSA8_9_Me_CBr3_NO2
C          1.97190       -0.06860        0.09200
C          1.58640       -0.58670        1.29870
C          1.89010       -0.64530       -1.29720
H          2.40220        0.92130        0.06600
C          1.75270        0.22380        2.58050
C          2.67430       -4.72990        0.85320
C          2.28230       -3.51650        0.42420
C          0.91630       -2.96150        0.74770
O          1.03260       -1.82210        1.51640
N          3.96600       -5.25510        0.56380
H          1.99170       -5.33460        1.44430
H          2.96590       -2.91200       -0.16040
H          0.34490       -3.70270        1.34590
H          0.29350       -2.78100       -0.14630
H          1.45090       -1.63820       -1.40070
H          2.91420       -0.69280       -1.72230
H          1.28350        0.03900       -1.92590
Br         2.54440        2.00250        2.43460
Br         0.01340        0.45280        3.40570
Br         2.87030       -0.78310        3.80360
O          4.75770       -4.63130       -0.07710
O          4.29610       -6.44420        1.01810
