24
TSA8_9_CCl3_OMe_CHF2
C          3.05190       -2.04750        0.31980
C          1.59480       -2.25250        0.82250
C          3.26260       -0.71680       -0.48440
H          3.67140       -1.98810        1.24030
O          1.12030       -1.21850        1.64230
C          3.47140       -3.33070       -0.49630
C          2.36010       -4.40000       -0.45780
C          1.02530       -3.74950       -0.88950
O          0.69440       -2.52920       -0.22670
C          4.78670       -3.96180        0.00530
H          3.59590       -3.06540       -1.56880
H          2.24600       -4.79210        0.57770
H          0.20450       -4.48310       -0.74910
H          1.10260       -3.52630       -1.97500
Cl         2.24710       -0.63460       -1.95380
Cl         2.89580        0.72130        0.50820
Cl         4.95700       -0.52160       -1.00330
C          1.13220       -1.70310        2.96200
H          0.73120       -0.91290        3.62920
H          2.17060       -1.91930        3.30130
H          0.47420       -2.59450        3.07630
F          5.84240       -3.07810       -0.09250
F          4.66210       -4.36160        1.32570
H          5.02860       -4.85400       -0.61090
