22
TSA8_9_CH2F_OMe_CN
C          2.33380       -1.68460       -0.31380
C          1.41250       -1.75870        0.88230
C          2.00460       -0.43000       -1.20180
H          3.32500       -1.50060        0.15640
O          1.95630       -1.54660        2.10540
C          2.31490       -3.08900       -1.03230
C          1.45160       -3.01210       -2.25350
C          0.12760       -3.11070       -2.17190
O          0.23600       -2.07020        0.76620
C          3.62130       -3.66730       -1.40260
H          1.92240       -3.86660       -0.33170
H          1.89990       -2.69010       -3.19220
H         -0.35100       -3.35900       -1.23380
H         -0.47980       -2.90250       -3.04280
F          3.16490        0.15810       -1.66770
H          1.45410        0.33420       -0.61360
H          1.33250       -0.60540       -2.06750
C          1.64130       -2.27260        3.22900
H          2.15610       -1.81720        4.09950
H          2.02720       -3.30720        3.10160
H          0.54780       -2.29460        3.41320
N          4.60380       -4.18050       -1.71580
