22
TSA8_9_CF3_NO2_CH2F
C          2.86070       -1.09860        0.68410
C          1.43710       -1.06680        1.23830
C          2.86640       -0.47390       -0.73540
H          3.49850       -0.44190        1.31220
N          1.11560       -0.32920        2.33980
C          3.45050       -2.54500        0.82970
C          2.74030       -3.57510       -0.02540
C          2.05550       -4.59180        0.50750
O          0.56590       -1.71700        0.67520
C          4.96610       -2.63520        0.57600
H          3.32310       -2.80650        1.90600
H          2.79300       -3.49960       -1.10650
H          1.97590       -4.71560        1.58270
H          1.56580       -5.31180       -0.14020
F          4.15000       -0.34310       -1.22370
F          2.11560       -1.22140       -1.62440
F          2.31970        0.79680       -0.67280
O         -0.00700       -0.32270        2.74910
O          2.02700        0.38270        2.96850
F          5.28970       -2.46580       -0.75690
H          5.32390       -3.64370        0.87660
H          5.50680       -1.88690        1.19330
