22
TSA8_9_CF3_NO2_CH2F
C          1.87980       -0.08080        0.05090
C          1.51860       -0.97040        1.00610
C          1.80330       -0.30420       -1.44020
H          2.26440        0.88840        0.35440
N          1.62750       -0.63290        2.38880
C          4.09690       -3.70970        1.38350
C          3.28790       -3.10080        0.50590
C          1.79710       -3.34800        0.47980
O          1.03850       -2.19930        0.67570
C          5.57250       -3.44820        1.37810
H          3.69110       -4.40480        2.11320
H          3.70930       -2.41080       -0.22030
H          1.50180       -4.09650        1.24610
H          1.54450       -3.77100       -0.51420
F          3.07520       -0.20660       -1.97170
F          1.27350       -1.53350       -1.78070
F          1.01030        0.68080       -1.99770
O          1.29630       -1.42310        3.22000
O          2.07350        0.54700        2.76770
F          6.11200       -3.80940        0.15660
H          6.06110       -4.04290        2.17780
H          5.76630       -2.37030        1.56240
