22
TSA8_9_CN_Et_OH
C          2.74450        0.81580       -1.20910
C          1.53090        0.23200       -1.89640
C          2.35220        1.13280        0.20190
H          3.52520        0.03120       -1.16170
C          1.50370       -1.21150       -2.32680
C          3.26580        2.08050       -2.02580
C          2.77420        3.28380       -1.27300
C          1.50460        3.65310       -1.40530
O          0.55750        0.93830       -2.11950
O          4.67410        2.07990       -2.10380
H          2.87650        2.09730       -3.07970
H          3.33720        3.60660       -0.40020
H          0.89770        3.25670       -2.21010
H          1.05670        4.28430       -0.65430
N          2.06670        1.45180        1.28670
C          0.52270       -1.41500       -3.47940
H          1.22550       -1.84790       -1.45700
H          2.51140       -1.51960       -2.67490
H         -0.50590       -1.13590       -3.16500
H          0.52160       -2.47170       -3.81340
H          0.83120       -0.76820       -4.32990
H          4.98770        3.00930       -2.28410
