19
TSA8_9_NH2_CHF2_I
C          2.85490        1.00230       -0.48660
C          1.37780        1.09640       -1.00160
N          2.88690        0.58910        0.91950
H          3.42560        0.24050       -1.06390
C          1.16330        0.26080       -2.26410
C          3.54120        2.36200       -0.68300
C          2.74290        3.48740       -0.00920
C          1.22920        3.23830       -0.13240
O          0.95450        2.43500       -1.25920
I          5.59130        2.37540       -0.06440
H          3.53600        2.56810       -1.77600
H          2.98530        3.62150        1.06710
H          0.70450        4.21240       -0.21530
H          0.81880        2.75640        0.78470
H          2.33950        1.23870        1.52550
H          2.46920       -0.36580        1.00520
F         -0.16830        0.30810       -2.63310
F          1.93990        0.74960       -3.30020
H          1.43840       -0.79690       -2.06790
