23
TSA8_9_CH2F_CCl3_CHF2
C          2.52170       -1.60840       -0.47280
C          1.47460       -1.32220        0.59500
C          2.65350       -0.36790       -1.38070
H          3.49730       -1.74060        0.04470
C          1.85250       -1.28660        2.06120
C          2.19080       -2.95600       -1.20030
C          0.89290       -2.89040       -1.98030
C         -0.16060       -3.65310       -1.67160
O          0.31670       -1.11120        0.26140
C          3.30770       -3.47490       -2.12750
H          2.10150       -3.72100       -0.39480
H          0.81180       -2.20810       -2.82120
H         -0.12630       -4.35130       -0.84130
H         -1.07190       -3.57890       -2.25600
F          3.73070       -0.47160       -2.23730
H          2.83480        0.52830       -0.74920
H          1.72510       -0.18940       -1.96190
Cl         2.52030       -2.86310        2.55720
Cl         3.07690       -0.02280        2.34580
Cl         0.44370       -0.93310        3.10250
F          3.46090       -2.69330       -3.25710
F          4.50950       -3.54970       -1.44610
H          3.04190       -4.49820       -2.47060
