20
TSA8_9_CCl3_Cl_CHF2
C          1.35680       -1.96410       -1.59810
C          1.04890       -1.76030       -0.09460
C          1.37040       -0.57330       -2.32590
H          2.40510       -2.32850       -1.67930
Cl         1.68400       -3.05500        0.97520
C          0.41580       -3.11350       -2.10190
C         -1.04650       -2.84130       -1.72800
C         -1.14600       -2.54640       -0.22800
O         -0.31710       -1.45880        0.15140
C          0.52710       -3.51950       -3.57900
H          0.71670       -4.02020       -1.52880
H         -1.46680       -2.00380       -2.31600
H         -0.91140       -3.45530        0.36710
H         -2.19940       -2.28930        0.00600
Cl         2.00620       -0.67820       -3.98920
Cl        -0.19950        0.27470       -2.37150
Cl         2.51060        0.51690       -1.48180
F          0.00630       -2.55340       -4.42000
F          1.84330       -3.78470       -3.91260
H         -0.06530       -4.44570       -3.74170
