21
TSA8_9_OMe_F_Me
C          0.27470        1.56010        0.28350
C          1.06190        0.73570       -0.71010
O          1.07900        1.87310        1.41040
H         -0.63850        0.99790        0.59170
F          0.62170       -0.49990       -1.06330
C         -0.20340        2.88030       -0.37060
C         -1.07010        2.59250       -1.57830
C         -0.73030        3.00010       -2.80520
O          2.09640        1.17010       -1.19380
C         -1.00760        3.73100        0.62090
H          0.69260        3.46950       -0.67320
H         -1.99360        2.03660       -1.44560
H          0.18580        3.55590       -2.98010
H         -1.37440        2.77460       -3.64860
C          1.30600        0.72660        2.20550
H          1.68670        1.05840        3.19320
H          2.08460        0.08110        1.74590
H          0.37450        0.15200        2.40750
H         -0.38920        3.98990        1.50640
H         -1.91330        3.18620        0.96460
H         -1.32440        4.68050        0.13730
