21
TSA8_9_OMe_F_Me
C          0.27230        1.66710        0.35080
C          0.81600        0.83010       -0.83930
O          1.26250        1.87170        1.34340
H         -0.60550        1.11230        0.76180
F         -0.15550       -0.01370       -1.36050
C         -0.20980        3.05400       -0.14250
C         -0.81280        2.89150       -1.53350
C          0.33510        2.45090       -2.47650
O          1.34660        1.64710       -1.86220
C         -1.19020        3.69960        0.83940
H          0.66530        3.73610       -0.25140
H         -1.61480        2.12180       -1.48320
H          0.84080        3.38590       -2.79680
H         -0.06950        1.96330       -3.38870
C          1.50670        0.67820        2.05700
H          2.13870        0.92120        2.93540
H          2.07040       -0.04790        1.43220
H          0.57220        0.22750        2.46040
H         -0.70530        3.83240        1.83010
H         -2.09530        3.06710        0.96290
H         -1.50060        4.69720        0.46300
