17
TSA8_9_I_OH_NO2
C          2.05170       -1.79530       -0.82690
C          0.85010       -2.37550       -0.11980
I          1.60880        0.24480       -1.34470
H          2.91910       -1.77900       -0.13120
O          0.94020       -2.81020        1.15520
C          2.41800       -2.63090       -2.07460
C          3.62830       -2.05020       -2.77130
C          3.57900       -1.61490       -4.03440
O         -0.22030       -2.45680       -0.70230
N          2.69830       -4.00620       -1.70120
H          1.54630       -2.61700       -2.76880
H          4.56810       -1.98470       -2.23020
H          2.66030       -1.66220       -4.61090
H          4.46840       -1.20440       -4.50120
H          1.76850       -2.76720        1.65300
O          3.59220       -4.26330       -0.95110
O          1.96190       -4.98160       -2.18880
