17
TSA8_9_I_OH_NO2
C          1.78390       -0.15040       -0.00350
C          1.59230       -1.33230       -0.60850
I          1.78280        1.68020       -1.06750
H          1.94810       -0.10640        1.06860
O          1.59580       -2.47980        0.10750
C          2.43930       -4.07270       -2.71550
C          3.09840       -2.90480       -2.63890
C          2.39830       -1.59150       -2.86070
O          1.38140       -1.39220       -1.94570
N          3.08830       -5.32270       -2.50770
H          1.37610       -4.06810       -2.94180
H          4.16090       -2.88670       -2.41530
H          1.96900       -1.57530       -3.88460
H          3.13500       -0.76330       -2.78170
H          1.73300       -2.49610        1.06580
O          4.25400       -5.37920       -2.25450
O          2.39150       -6.43430       -2.59470
