17
TSA8_9_I_OH_NO2
C          2.48480       -2.28660       -0.61390
C          1.18540       -1.46800       -0.86960
I          4.19100       -0.96520       -0.50570
H          2.43520       -2.74900        0.39630
O          0.13650       -2.04690       -0.15160
C          2.57580       -3.36890       -1.70190
C          2.62800       -2.72110       -3.09780
C          1.88490       -1.37210       -3.11670
O          0.77980       -1.38500       -2.23970
N          3.67690       -4.29330       -1.49870
H          1.62120       -3.94060       -1.64400
H          3.66040       -2.53200       -3.46380
H          1.54840       -1.16000       -4.15230
H          2.55820       -0.53050       -2.84670
H         -0.11740       -1.36210        0.51750
O          4.80900       -3.91660       -1.53860
O          3.42880       -5.56790       -1.28730
