27
TSA8_9_CF3_OMe_Et
C          3.30270       -1.62110       -0.74200
C          2.32810       -2.40630        0.11140
C          2.72360       -0.23200       -1.08940
H          4.20260       -1.42080       -0.12260
O          2.68560       -2.74570        1.37620
C          3.77890       -2.41080       -2.00790
C          2.64690       -2.66820       -2.98450
C          2.64600       -2.15680       -4.21960
O          1.22940       -2.71970       -0.32770
C          4.43700       -3.77130       -1.66810
H          4.55300       -1.78860       -2.51210
H          1.81040       -3.29090       -2.68530
H          1.81950       -2.36590       -4.89120
H          3.45920       -1.52950       -4.57100
F          3.65220        0.50210       -1.80660
F          1.56300       -0.33780       -1.83580
F          2.43330        0.45460        0.07700
C          1.89140       -3.48700        2.22440
H          2.41020       -3.60680        3.19750
H          1.70670       -4.49300        1.79050
H          0.92360       -2.96840        2.39560
C          5.68640       -3.65140       -0.79350
H          4.74730       -4.25710       -2.61990
H          3.70570       -4.44140       -1.16560
H          6.44000       -3.00070       -1.28540
H          6.12940       -4.65900       -0.64760
H          5.44200       -3.24540        0.20850
