23
TSA8_9_Me_CCl3_Me
C          2.57280       -1.67580       -0.37910
C          1.52100       -1.30620        0.65500
C          2.73190       -0.52170       -1.38540
H          3.54680       -1.78820        0.14640
C          1.88730       -1.17210        2.11800
C          2.24780       -3.05270       -1.03650
C          0.96430       -3.02780       -1.84080
C         -0.08630       -3.79050       -1.52260
O          0.36800       -1.10950        0.29660
C          3.39080       -3.54570       -1.93440
H          2.15820       -3.79280       -0.20870
H          0.89090       -2.37750       -2.70720
H         -0.05890       -4.45790       -0.66710
H         -0.98800       -3.74770       -2.12470
H          1.79050       -0.33860       -1.94410
H          3.54660       -0.72900       -2.10710
H          2.99840        0.41190       -0.84520
Cl         2.53440       -2.71670        2.72790
Cl         3.12230        0.09660        2.32380
Cl         0.47370       -0.73280        3.11970
H          4.33700       -3.60070       -1.35500
H          3.54040       -2.88110       -2.81010
H          3.15940       -4.56430       -2.31340
