18
TSA8_9_NH2_H_NO2
C          1.59560       -1.77470        1.54390
C          1.49590       -0.27900        1.35130
N          1.25510       -2.47670        0.30230
H          2.65670       -2.00460        1.78910
H          2.38120        0.33730        1.46840
C          0.73910       -2.26590        2.74400
C         -0.74280       -2.01080        2.55480
C         -1.43470       -1.21760        3.37930
O          0.43620        0.24940        1.05270
N          0.95760       -3.68210        2.98220
H          1.09390       -1.70520        3.64010
H         -1.26590       -2.48620        1.73090
H         -0.95610       -0.72210        4.21850
H         -2.49550       -1.05860        3.21520
H          1.92690       -2.19530       -0.44870
H          0.29090       -2.22500       -0.01310
O          0.64940       -4.49470        2.16220
O          1.48330       -4.08140        4.12060
