18
TSA8_9_NH2_H_NO2
C          1.99950       -0.06590        0.18610
C          1.26470       -0.08230        1.30460
N          2.19250       -1.22940       -0.60250
H          2.45840        0.86620       -0.12950
H          1.14560        0.83980        1.86850
C         -0.36960       -3.34260        4.19040
C         -0.62580       -2.65710        3.06230
C         -0.12360       -1.25740        2.85600
O          0.67450       -1.22230        1.73510
N         -0.84300       -4.66960        4.39680
H          0.21620       -2.87570        4.97790
H         -1.21180       -3.10870        2.26680
H          0.45640       -0.90490        3.73840
H         -0.99720       -0.58480        2.71310
H          2.76150       -1.17430       -1.45880
H          1.77160       -2.13360       -0.34270
O         -1.49010       -5.23090        3.56420
O         -0.56420       -5.28760        5.52350
