18
TSA8_9_NH2_H_NO2
C          1.56210       -1.91880        1.70470
C          1.28980       -0.40310        1.73580
N          1.27180       -2.46220        0.37330
H          2.63730       -2.10360        1.92150
H          1.66370        0.07520        2.66960
C          0.70970       -2.58480        2.81100
C         -0.76240       -2.17260        2.67080
C         -0.84310       -0.64000        2.62010
O         -0.08690       -0.12420        1.53610
N          0.85210       -4.02940        2.81580
H          1.06690       -2.18810        3.78940
H         -1.20970       -2.59640        1.74670
H         -0.51180       -0.19080        3.58420
H         -1.90520       -0.34820        2.48430
H          1.92280       -2.02860       -0.32130
H          0.29430       -2.24440        0.07650
O          0.50200       -4.68160        1.87820
O          1.35100       -4.63440        3.87230
