22
TSA8_9_CHF2_CF3_NO2
C          2.01910        0.18280       -0.00560
C          1.62760        1.08370       -0.96340
C          1.84670        0.09090        1.49650
H          2.56920       -0.68530       -0.35270
C          1.96860        0.80640       -2.41490
C          2.16320        4.93870        0.87840
C          1.90100        3.61820        0.87670
C          0.63540        3.06750        0.26710
O          0.93770        2.25630       -0.80440
N          3.36030        5.47550        1.43220
H          1.44640        5.62700        0.43940
H          2.61560        2.92630        1.30820
H          0.01730        3.90320       -0.12390
H         -0.02430        2.55910        0.98720
F          3.09560        0.04060        2.08620
F          1.12440        1.08240        2.10020
H          1.32360       -0.86440        1.71410
F          0.79710        0.73580       -3.14590
F          2.73340        1.85130       -2.90030
F          2.67240       -0.37140       -2.60520
O          4.18900        4.76580        1.91860
O          3.56420        6.77400        1.39290
