22
TSA8_9_NO2_CBr3_CHF2
C          1.79920       -0.05280       -0.13560
C          1.47610       -0.43100       -1.40840
N          1.84620        1.28620        0.35760
H          2.01140       -0.81840        0.59870
C          1.33440       -1.90080       -1.78990
C          2.37880        2.16980       -5.15380
C          2.61530        1.32070       -4.14370
C          2.05040        1.53110       -2.76940
O          1.25990        0.44710       -2.43250
C          2.97020        1.93760       -6.51200
H          1.75530        3.04620       -4.99940
H          3.24460        0.45130       -4.31050
H          1.43510        2.45640       -2.73670
H          2.91300        1.63520       -2.07690
O          2.22190        1.47280        1.47540
O          1.26540        2.27650       -0.28200
Br         1.62880       -3.21940       -0.38170
Br        -0.45940       -2.19310       -2.46270
Br         2.58290       -2.31510       -3.21220
F          4.35090        1.92380       -6.42840
F          2.52740        0.72990       -7.02010
H          2.65970        2.75320       -7.19780
