22
TSA8_9_NO2_CBr3_CHF2
C          2.50540        0.04790       -2.48800
C          1.02330        0.01500       -1.95390
N          3.40730        0.52040       -1.44280
H          2.82340       -0.98090       -2.76440
C          0.33930       -1.36140       -2.04390
C          2.53770        0.93850       -3.76270
C          1.98470        2.34240       -3.45620
C          0.83850        2.26690       -2.43710
O          0.18990        1.01760       -2.53440
C          3.87020        1.00980       -4.52900
H          1.81740        0.46230       -4.46460
H          2.74480        3.05400       -3.06680
H          0.12170        3.09300       -2.62280
H          1.21690        2.42420       -1.40040
O          4.58770        0.48580       -1.61150
O          2.94640        0.85540       -0.25500
Br         1.33800       -2.70100       -1.05450
Br        -1.42490       -1.26240       -1.24540
Br         0.14110       -1.94570       -3.88520
F          4.84110        1.69800       -3.82600
F          4.32410       -0.26400       -4.82070
H          3.70630        1.55020       -5.48580
