20
TSA8_9_Me_NO2_CN
C          1.60090       -0.00960       -0.11050
C          1.40120       -0.39940       -1.43490
C          1.68230        1.30110        0.65800
H          1.57340       -0.82290        0.65200
N          1.67940       -1.75980       -1.72950
C          1.80640        3.09760       -4.23710
C          1.89850        2.48440       -3.05350
C          0.71240        1.71960       -2.50610
O          1.02170        0.38160       -2.50420
C          2.99330        3.65560       -4.85230
H          0.85900        3.13790       -4.76840
H          2.87060        2.49050       -2.56040
H         -0.16420        1.89590       -3.13260
H          0.36310        2.05160       -1.51670
H          1.56660        2.23230        0.10880
H          2.74900        1.21700        0.93650
H          1.13460        1.38580        1.62800
O          2.06430       -2.07960       -2.81650
O          1.36110       -2.68510       -0.86360
N          3.95850        4.08080       -5.30450
