20
TSA8_9_I_CH2F_CF3
C          1.97570        1.93040       -1.29580
C          0.69660        1.63240       -2.03850
I          1.80060        1.04130        0.65780
H          2.82770        1.42870       -1.80660
C          0.72290        0.79740       -3.28610
C          2.26620        3.45340       -1.20200
C          3.53440        3.67980       -0.40500
C          3.54020        4.37730        0.73540
O         -0.36570        2.06920       -1.61900
C          2.43340        4.11690       -2.58780
H          1.40910        3.94460       -0.68770
H          4.46970        3.26470       -0.77030
H          2.62820        4.80940        1.13580
H          4.46850        4.51920        1.27920
F         -0.55220        0.64620       -3.80290
H          1.13770       -0.20500       -3.05190
H          1.36450        1.28700       -4.04820
F          3.46850        3.52290       -3.29030
F          1.27120        4.01430       -3.33030
F          2.71790        5.46250       -2.42870
