19
TSA8_9_CF3_Br_NO2
C          1.71380       -0.72030        1.96680
C          1.09000        0.47440        1.27390
C          1.75840       -1.91890        0.98550
H          2.77190       -0.45410        2.18540
Br         2.12170        2.05530        0.96890
C          1.01830       -0.95490        3.35140
C         -0.46620       -1.24770        3.24770
C         -1.38560       -0.42610        3.76640
O         -0.06950        0.44330        0.89070
N          1.66170       -1.99930        4.13190
H          1.15120        0.00360        3.90620
H         -0.80200       -2.14950        2.74750
H         -1.10040        0.48700        4.28010
H         -2.44000       -0.66620        3.67760
F          2.50000       -2.96210        1.50310
F          0.48860       -2.37030        0.67730
F          2.37670       -1.52390       -0.18910
O          1.56220       -3.14760        3.82140
O          2.25990       -1.69020        5.26270
