19
TSA8_9_CF3_Br_NO2
C          1.84480       -0.02170        0.05720
C          1.14080        0.35050        1.14070
C          2.18770       -1.44250       -0.31780
H          2.19590        0.75410       -0.61710
Br         0.81290        2.23160        1.39490
C         -0.12970       -1.62440        5.17420
C         -0.43540       -1.51900        3.86770
C         -0.14580       -0.26730        3.09020
O          0.67450       -0.56910        2.02450
N         -0.40120       -2.80140        5.92710
H          0.33790       -0.78500        5.68190
H         -0.90790       -2.34650        3.34640
H          0.34160        0.49460        3.73770
H         -1.10660        0.14390        2.71160
F          3.56190       -1.56990       -0.38660
F          1.70100       -2.37140        0.58410
F          1.65110       -1.71440       -1.56260
O         -0.91120       -3.75510        5.41970
O         -0.09010       -2.83780        7.20440
