26
TSA8_9_CH2F_Et_CBr3
C          1.58090       -0.14870       -0.06750
C          1.32170       -1.22230       -0.85970
C          1.87500        1.25760       -0.51550
H          1.54570       -0.27980        1.01070
C          0.94200       -2.53550       -0.21540
C          3.90740       -1.33990       -4.77400
C          2.94010       -1.65890       -3.90140
C          2.32260       -0.61550       -3.01970
O          1.35810       -1.20450       -2.22280
C          4.55710       -2.37590       -5.65320
H          4.23660       -0.30630       -4.84390
H          2.60280       -2.68900       -3.82200
H          1.84910        0.16730       -3.65000
H          3.14030       -0.17380       -2.40980
F          3.13820        1.62240       -0.08940
H          1.12950        1.93490       -0.04940
H          1.79450        1.41550       -1.60390
C          1.92940       -3.63460       -0.59700
H         -0.07380       -2.82340       -0.56020
H          0.91720       -2.45690        0.89380
H          1.93960       -3.78440       -1.69710
H          1.62690       -4.58930       -0.11760
H          2.95230       -3.36930       -0.25460
Br         5.90010       -1.54220       -6.77430
Br         5.42740       -3.73030       -4.56980
Br         3.24390       -3.22290       -6.80260
