26
TSA8_9_CH2F_Et_CBr3
C          3.00320       -1.22000       -1.94500
C          1.54540       -1.75510       -2.02950
C          3.10880       -0.05620       -0.93570
H          3.67570       -2.01850       -1.57580
C          0.99410       -2.42930       -0.76170
C          3.46630       -0.78200       -3.38160
C          2.26370       -0.71620       -4.35230
C          1.06160       -0.07330       -3.64510
O          0.65140       -0.73120       -2.44580
C          4.59210       -1.68350       -3.96190
H          3.88890        0.24560       -3.32470
H          1.94860       -1.73600       -4.66150
H          0.20910       -0.06410       -4.35570
H          1.31690        0.97970       -3.40140
F          4.41580        0.38980       -0.85220
H          2.80280       -0.38920        0.07660
H          2.46160        0.79410       -1.23590
C          1.80050       -3.65620       -0.34040
H         -0.04030       -2.76850       -0.98490
H          0.93670       -1.70560        0.07840
H          1.84480       -4.38980       -1.17330
H          1.31000       -4.13650        0.53190
H          2.82950       -3.37840       -0.03620
Br         5.12490       -1.06920       -5.72800
Br         6.18430       -1.60870       -2.84890
Br         4.05420       -3.55050       -4.10710
