21
TSA8_9_Br_OMe_CCl3
C          1.70660        0.12280        0.18380
C          1.76100        0.68280       -1.03900
Br         1.56200        1.08900        1.83470
H          1.70350       -0.96180        0.26140
O          1.79610       -0.14100       -2.11680
C          3.18800        5.03430       -1.81320
C          3.31650        3.70800       -1.63690
C          2.53660        2.96420       -0.59410
O          1.75960        2.02940       -1.24520
C          3.92070        5.83390       -2.86760
H          2.50880        5.58530       -1.16740
H          3.98270        3.12080       -2.25920
H          1.87880        3.64530       -0.01330
H          3.26380        2.48360        0.09540
C          1.94640        0.31870       -3.40840
H          1.93690       -0.54160       -4.10750
H          2.91670        0.85110       -3.51020
H          1.11540        1.00740       -3.67190
Cl         2.71700        6.63990       -3.90100
Cl         4.90400        7.07940       -2.06370
Cl         4.99760        4.87250       -3.92630
