21
TSA8_9_Br_OMe_CCl3
C          3.53330        2.11080       -1.95080
C          2.23870        1.42420       -1.48510
Br         4.95900        1.49040       -0.77350
H          3.78130        1.75380       -2.97190
O          1.18650        1.57110       -2.41040
C          3.29980        3.64650       -1.95550
C          2.80640        4.07460       -0.56360
C          1.56980        3.24680       -0.18470
O          1.84710        1.85350       -0.18840
C          4.48160        4.52070       -2.46250
H          2.46750        3.83450       -2.67100
H          3.60100        3.92200        0.19790
H          0.71450        3.48230       -0.85770
H          1.25540        3.54230        0.83710
C          1.09130        0.37150       -3.13610
H          1.02220       -0.51920       -2.46960
H          1.93920        0.27840       -3.84990
H          0.15550        0.39730       -3.73080
Cl         3.94660        6.21930       -2.59430
Cl         5.91820        4.51050       -1.40110
Cl         4.98730        4.00560       -4.09550
