16
TSA8_9_Br_H_NH2
C          2.45620       -1.98050        0.26320
C          1.01850       -1.65700       -0.04120
Br         3.49560       -0.33180        0.22520
H          2.46940       -2.35590        1.30990
H          0.25720       -1.87170        0.70260
C          3.09240       -3.10100       -0.61050
C          3.27350       -2.75650       -2.08070
C          2.26110       -2.66100       -2.94710
O          0.69460       -1.09460       -1.07410
N          4.39250       -3.46180       -0.03460
H          2.45120       -4.00840       -0.54100
H          4.28050       -2.62540       -2.46780
H          1.23520       -2.83150       -2.64660
H          2.46320       -2.43340       -3.98900
H          5.07600       -2.67650       -0.13420
H          4.77710       -4.29740       -0.53330
