20
TSA8_9_CH2F_Br_CH2F
C          1.77550       -0.10840        0.06700
C          1.43530       -1.32340        0.56870
C          1.90260        0.35980       -1.35680
H          1.97170        0.67440        0.79540
Br         1.33030       -1.45510        2.47410
C          3.59250       -4.10450       -1.78910
C          2.95010       -2.94940       -1.56450
C          1.45500       -2.89900       -1.38480
O          1.15550       -2.48020       -0.10570
C          5.08470       -4.14770       -1.91900
H          3.03840       -5.03590       -1.86310
H          3.51780       -2.02820       -1.48390
H          1.02260       -3.91350       -1.50850
H          0.94710       -2.28490       -2.14860
F          3.18880        0.81370       -1.57490
H          1.19900        1.20700       -1.50300
H          1.66670       -0.37600       -2.12590
F          5.49310       -3.36800       -2.98510
H          5.41390       -5.19400       -2.08550
H          5.55240       -3.77170       -0.98410
