20
TSA8_9_CH2F_Br_CH2F
C          2.74860       -1.49520       -0.31170
C          1.31160       -1.75970        0.24790
C          2.70580       -0.31090       -1.29820
H          3.40380       -1.16390        0.52400
Br         1.35410       -1.89490        2.18460
C          3.28740       -2.82760       -0.89370
C          2.33410       -3.37340       -1.97450
C          0.87000       -3.04670       -1.63810
O          0.69810       -2.95110       -0.24310
C          4.74630       -2.82300       -1.37440
H          3.25050       -3.54500       -0.04250
H          2.54080       -2.98940       -2.99710
H          0.21560       -3.84040       -2.05340
H          0.53440       -2.10300       -2.12300
F          3.97950        0.08820       -1.65480
H          2.22590        0.55740       -0.79780
H          2.12670       -0.53990       -2.21310
F          4.91410       -2.06050       -2.51530
H          5.05300       -3.86290       -1.61720
H          5.41220       -2.44520       -0.56990
