20
TSA8_9_CHF2_Cl_Me
C          2.73600       -0.76780       -1.15340
C          1.39530       -1.27010       -0.66290
C          2.88850        0.72810       -0.78860
H          3.51570       -1.31760       -0.58040
Cl         1.32190       -2.51000        0.57970
C          2.93790       -1.14020       -2.65950
C          1.95690       -0.44860       -3.58400
C          1.06210       -1.13050       -4.30590
O          0.35290       -0.82080       -1.11380
C          4.36460       -0.86840       -3.15440
H          2.79610       -2.24360       -2.72720
H          1.98100        0.63180       -3.67850
H          1.00060       -2.21280       -4.25100
H          0.37910       -0.60040       -4.96170
F          4.15360        1.19760       -1.08360
F          1.94520        1.51560       -1.42340
H          2.74510        0.84430        0.30740
H          5.10220       -1.38770       -2.50610
H          4.59480        0.21520       -3.17860
H          4.48240       -1.25720       -4.18880
