20
TSA8_9_CHF2_Cl_Me
C          1.76000       -0.15420       -0.04150
C          1.35960       -1.36390       -0.52440
C          2.05380        1.19050       -0.67130
H          1.89620       -0.11490        1.03650
Cl         1.10990       -2.62170        0.68060
C          3.50710       -1.74970       -4.23350
C          2.87330       -1.09000       -3.25330
C          1.38400       -1.21530       -3.04350
O          1.11650       -1.76410       -1.80880
C          4.98760       -1.61800       -4.41600
H          2.95410       -2.39430       -4.91110
H          3.45060       -0.45640       -2.58800
H          0.95790       -1.90090       -3.80700
H          0.83590       -0.26870       -3.18430
F          3.36840        1.52890       -0.41140
F          1.83170        1.30050       -2.01730
H          1.39880        1.93960       -0.17920
H          5.51330       -1.96100       -3.49980
H          5.25210       -0.55850       -4.61770
H          5.31700       -2.24110       -5.27360
