21
TSA8_9_OH_CF3_CBr3
C          2.75770        0.73450       -1.77100
C          1.46130        0.28360       -2.41520
O          2.52070        0.97350       -0.40610
H          3.50520       -0.08700       -1.85870
C          1.33860       -1.09810       -3.00200
C          3.41290        2.01020       -2.38950
C          2.51350        3.22220       -2.21690
C          2.85650        4.25550       -1.44070
O          0.49000        1.02500       -2.41690
C          3.87600        1.87940       -3.87190
H          4.34280        2.17150       -1.79720
H          1.56240        3.26580       -2.73670
H          2.18810        5.10480       -1.34390
H          3.79690        4.26590       -0.89870
H          2.52360        0.09130        0.05040
F          0.06730       -1.29760       -3.51200
F          2.25840       -1.26800       -4.01840
F          1.57670       -2.03840       -2.01690
Br         4.87100        3.46850       -4.38980
Br         5.09710        0.38590       -4.11000
Br         2.42140        1.69570       -5.15280
