16
TSA8_9_Cl_NO2_Cl
C          2.89150        1.12980        0.37420
C          1.39470        1.56340        0.24830
Cl         2.99580       -0.46580        1.18230
H          3.34540        0.99040       -0.63080
N          1.14280        2.12400       -1.06580
C          3.65160        2.20720        1.15600
C          3.02500        2.41080        2.54540
C          1.51040        2.14480        2.51200
O          0.97810        2.49530        1.25460
Cl         5.39890        1.86320        1.28770
H          3.53880        3.15780        0.59010
H          3.45920        1.74740        3.32510
H          1.01710        2.72750        3.31680
H          1.28210        1.07640        2.72900
O          0.72980        3.23840       -1.18560
O          1.30500        1.37680       -2.13600
