23
TSA8_9_NH2_Et_CN
C          2.34270       -1.24600        1.10050
C          1.29980       -0.52900        1.94550
N          2.03010       -0.96680       -0.31990
H          3.32470       -0.77370        1.30890
C          1.59660        0.75150        2.67100
C          2.35000       -2.77400        1.47890
C          1.42440       -3.51140        0.55600
C          0.11290       -3.58960        0.77670
O          0.15900       -0.95720        1.99820
C          3.66590       -3.44480        1.50040
H          2.04010       -2.88420        2.54260
H          1.81500       -3.85150       -0.39720
H         -0.33920       -3.21730        1.68740
H         -0.52650       -3.99840        0.00730
H          2.76450       -1.24160       -1.01210
H          1.04680       -1.19520       -0.61820
C          1.11280        0.68570        4.11770
H          1.03090        1.56030        2.16010
H          2.67770        1.00070        2.62520
H          0.01590        0.49470        4.14290
H          1.29640        1.65710        4.62130
H          1.63250       -0.12520        4.66670
N          4.66980       -4.02410        1.54110
