23
TSA8_9_NH2_Et_CN
C          2.40080       -1.41990        1.04170
C          1.13270       -0.65910        1.55750
N          2.27870       -1.68640       -0.40420
H          3.31650       -0.81080        1.21390
C          1.44460        0.54890        2.47760
C          2.46750       -2.73220        1.83440
C          1.24190       -3.57960        1.48360
C         -0.02410       -2.70410        1.39240
O          0.11190       -1.49630        2.11830
C          3.70870       -3.50320        1.67630
H          2.41240       -2.47220        2.91290
H          1.35840       -4.09870        0.50110
H         -0.86580       -3.29900        1.80320
H         -0.28930       -2.47030        0.33770
H          3.10470       -1.29660       -0.91290
H          1.43620       -1.21360       -0.81110
C          1.04550        0.35860        3.94190
H          0.87480        1.41660        2.08850
H          2.51990        0.82650        2.42930
H         -0.05060        0.19200        4.01920
H          1.28650        1.28320        4.50980
H          1.58570       -0.49550        4.39840
N          4.67240       -4.13670        1.57740
