18
TSA8_9_CN_CCl3_Cl
C          2.65740       -0.48350       -1.13000
C          1.29550       -1.21680       -0.94980
C          2.39240        0.95980       -0.98790
H          3.39190       -0.76440       -0.34630
C          1.35160       -2.40570        0.03490
C          3.22820       -0.83790       -2.50600
C          2.26230       -0.37170       -3.59420
C          0.80390       -0.66080       -3.18970
O          0.72030       -1.65810       -2.18620
Cl         4.86780       -0.18770       -2.77480
H          3.30810       -1.94480       -2.57200
H          2.35230        0.72570       -3.77090
H          0.27710       -1.01010       -4.10140
H          0.27900        0.26290       -2.85520
N          2.16490        2.09100       -0.90010
Cl         2.08570       -1.95620        1.60290
Cl        -0.30980       -2.94140        0.37940
Cl         2.26020       -3.78000       -0.65230
