19
TSA8_9_CN_OH_CF3
C          1.69000       -0.02080       -0.09820
C          1.52610       -0.08600       -1.44780
C          1.81480        1.13910        0.74870
H          1.60690       -0.95440        0.44710
O          1.47420       -1.32500       -1.95460
C          3.26610        4.04240       -2.06300
C          2.93990        2.75060       -2.22330
C          1.50240        2.31230       -2.09950
O          1.40130        0.95740       -2.33190
C          4.67380        4.57610       -2.19310
H          2.48140        4.75810       -1.83890
H          3.72030        2.03030       -2.46600
H          0.91120        2.87460       -2.86250
H          1.06990        2.56370       -1.11800
N          1.91500        2.07230        1.42680
H          1.86660       -1.46810       -2.82210
F          5.59700        3.57090       -2.42440
F          4.72350        5.47280       -3.24500
F          5.02240        5.23800       -1.03050
