17
TSA8_9_Br_Me_H
C          2.99000       -0.61610       -1.55920
C          1.49160       -0.78920       -1.62630
Br         3.46090        0.37950        0.04360
H          3.44400       -1.62590       -1.45310
C          0.89460       -2.16510       -1.63400
C          3.64420        0.01240       -2.81140
C          3.28940        1.45120       -3.10220
C          2.10470        1.83240       -3.58770
O          0.75240        0.18270       -1.63060
H          4.74030       -0.01370       -2.62660
H          3.44860       -0.60950       -3.71170
H          4.05150        2.21020       -2.94950
H          1.32290        1.11440       -3.80500
H          1.91890        2.88120       -3.79540
H          1.25390       -2.72160       -2.52480
H         -0.21480       -2.11350       -1.66760
H          1.19890       -2.70890       -0.71550
