17
TSA8_9_Br_Me_H
C          2.06540       -0.18950       -0.31230
C          1.48950       -0.69350       -1.43200
Br         2.83820        1.54720       -0.04650
H          2.09690       -0.80430        0.58350
C          0.91250       -2.08150       -1.38630
C          4.06550        0.53350       -4.59240
C          3.51860        0.58460       -3.37250
C          2.08730        1.00410       -3.15750
O          1.36810       -0.05070       -2.62890
H          5.09560        0.21780       -4.71230
H          3.49310        0.80040       -5.47610
H          4.12360        0.30410       -2.51620
H          1.62240        1.27220       -4.13040
H          2.01200        1.90690       -2.52780
H          1.42870       -2.70940       -2.14270
H         -0.16900       -2.04180       -1.62970
H          1.03310       -2.56600       -0.39300
