17
TSA8_9_Br_Me_H
C          2.97890       -0.37290       -1.49720
C          1.43060       -0.43850       -1.70430
Br         3.45260        1.10350       -0.31790
H          3.34770       -1.28310       -0.97560
C          0.94260       -1.88600       -1.69950
C          3.65930       -0.22650       -2.85900
C          3.14510        1.02200       -3.59140
C          1.69560        1.34870       -3.19300
O          0.98030        0.16510       -2.92090
H          4.76730       -0.20760       -2.78480
H          3.37700       -1.11540       -3.46380
H          3.76110        1.92410       -3.38640
H          1.20860        1.91310       -4.01450
H          1.65890        2.01880       -2.30480
H          1.39540       -2.45380       -2.54000
H         -0.16250       -1.90570       -1.80480
H          1.20830       -2.37600       -0.73920
