17
TSA8_9_H_CBr3_Cl
C          2.09080        0.28220        2.04760
C          0.99010        1.29810        2.25160
H          1.67020       -0.52950        1.41700
H          2.94180        0.73800        1.49650
C          1.09340        2.70180        1.68920
C          2.59440       -0.32140        3.37620
C          3.64350       -1.37970        3.13350
C          3.37810       -2.50110        2.45510
O         -0.02140        0.95450        2.84680
Cl         3.28760        0.94400        4.43130
H          1.74550       -0.78980        3.92140
H          4.64590       -1.24270        3.52960
H          2.38980       -2.69370        2.04960
H          4.15650       -3.24230        2.30660
Br         1.27900        2.61920       -0.23890
Br        -0.49070        3.75970        2.08300
Br         2.62160        3.64790        2.41380
