17
TSA8_9_H_CBr3_Cl
C          1.91660        0.17330        0.14830
C          1.62380        0.82330        1.29540
H          2.17890       -0.87510        0.12110
H          1.88870        0.65940       -0.81780
C          1.22450        2.29010        1.31490
C          3.03560       -1.32200        5.19960
C          3.18820       -0.73860        4.00630
C          2.24770       -0.99700        2.86600
O          1.65480        0.20220        2.51140
Cl         4.16170       -0.97830        6.50250
H          2.21850       -2.01230        5.38430
H          4.01450       -0.05100        3.84810
H          1.45290       -1.71680        3.15800
H          2.84230       -1.44490        2.04840
Br         1.18140        3.20030       -0.40920
Br        -0.53980        2.45510        2.09720
Br         2.47740        3.25170        2.43830
