26
TSA8_9_Et_Cl_Et
C          2.33110        1.16600       -1.05920
C          0.95150        0.47540       -1.35740
C          2.34150        1.31220        0.50430
H          3.13150        0.47830       -1.40910
Cl         0.77260       -1.14760       -0.62140
C          2.42060        2.51700       -1.89460
C          1.82420        2.30880       -3.30960
C          0.48130        1.61450       -3.25220
O          0.69210        0.33280       -2.72950
C          3.82750        3.12600       -2.21950
H          1.77670        3.27320       -1.39350
H          2.49610        1.67550       -3.93390
H          0.08780        1.51370       -4.28530
H         -0.27260        2.19780       -2.67220
C          3.56270        1.85270        1.22210
H          2.22120        0.30080        0.94170
H          1.46600        1.92120        0.82330
H          4.47010        1.28070        0.93710
H          3.41670        1.73450        2.31740
H          3.65740        2.93700        1.06520
C          4.71510        3.67100       -1.11760
H          3.64650        4.00330       -2.88320
H          4.43030        2.38900       -2.79600
H          4.16930        4.42440       -0.51200
H          5.58850        4.17840       -1.58050
H          5.14260        2.85160       -0.51890
