18
TSA8_9_NH2_F_NH2
C          1.88470       -0.01540        0.13500
C          1.16090       -0.90910        0.82080
N          2.11680       -0.14790       -1.25830
H          2.30470        0.83820        0.65860
F          0.97060       -0.72070        2.15580
C         -0.29800       -5.25910        0.04770
C         -0.59870       -3.96390       -0.12480
C         -0.16150       -2.91100        0.85160
O          0.62140       -1.98540        0.19830
N         -0.72270       -6.23590       -0.88720
H          0.27790       -5.57740        0.91210
H         -1.17630       -3.65420       -0.99150
H          0.41420       -3.35990        1.69210
H         -1.06520       -2.41270        1.26400
H          1.73470       -0.93890       -1.79690
H          2.67650        0.56310       -1.75010
H         -1.27050       -5.97460       -1.72050
H         -0.48330       -7.22580       -0.73590
