18
TSA8_9_NH2_F_NH2
C          1.47680       -2.26680       -0.19960
C          1.06110       -1.39160        0.99720
N          1.07690       -1.59980       -1.44200
H          2.58320       -2.38950       -0.19790
F          1.58720       -1.85320        2.19510
C          0.79390       -3.64580       -0.04270
C         -0.71980       -3.45440        0.12560
C         -0.97010       -2.49520        1.29620
O         -0.34840       -1.23890        1.07480
N          1.09590       -4.54070       -1.16150
H          1.18700       -4.11600        0.88700
H         -1.16110       -3.02480       -0.80040
H         -0.63310       -2.94320        2.25820
H         -2.06440       -2.33730        1.38940
H          1.46520       -2.12450       -2.25800
H          1.51440       -0.64990       -1.47110
H          0.62440       -4.21010       -2.03420
H          0.71970       -5.49230       -0.94520
