23
TSA8_9_Et_Me_H
C          2.51780        1.19450       -0.42050
C          1.25860        1.09090       -1.25850
C          2.33940        0.36500        0.87480
H          3.33660        0.72670       -1.01270
C          1.32210        0.50370       -2.63740
C          2.97260        2.65980       -0.16370
C          2.11640        3.47870        0.77380
C          0.91730        3.96630        0.44550
O          0.17770        1.43910       -0.80930
H          3.98150        2.60730        0.29570
H          3.10390        3.20320       -1.12470
H          2.51680        3.71890        1.75480
H          0.48540        3.80440       -0.53400
H          0.36420        4.56390        1.16260
C          3.61010        0.26140        1.71920
H          2.04300       -0.66940        0.59190
H          1.52620        0.79760        1.49770
H          4.43330       -0.18620        1.12280
H          3.41420       -0.38840        2.59810
H          3.92370        1.25480        2.09880
H          1.99800        1.11470       -3.27120
H          0.31420        0.48350       -3.10450
H          1.71100       -0.53480       -2.58280
