23
TSA8_9_Et_Me_H
C          2.47770        1.21630       -0.40380
C          1.10030        1.31130       -1.14860
C          2.28180        0.59750        1.00140
H          3.15480        0.52370       -0.95370
C          1.17980        0.68870       -2.54120
C          3.11530        2.61650       -0.37910
C          2.17190        3.64120        0.26730
C          0.70300        3.32130       -0.05470
O          0.61180        2.64550       -1.28850
H          4.11780        2.64620        0.09290
H          3.25380        2.92260       -1.43930
H          2.28140        3.70330        1.37200
H          0.12070        4.26540       -0.08790
H          0.22800        2.70990        0.74480
C          3.60470        0.32750        1.72070
H          1.76310       -0.37910        0.88430
H          1.65120        1.23960        1.64770
H          4.23800       -0.35500        1.11520
H          3.40000       -0.15700        2.69870
H          4.15740        1.26890        1.91360
H          1.90790        1.24400       -3.17060
H          0.18110        0.72630       -3.02440
H          1.49310       -0.37420       -2.46760
