23
TSA8_9_CHF2_CCl3_CCl3
C          2.16120       -2.05120        0.85330
C          0.88650       -2.01820        1.68480
C          1.89090       -1.19940       -0.41640
H          2.96580       -1.53690        1.42280
C          0.80870       -1.24760        2.99440
C          2.63360       -3.51300        0.48930
C          3.88740       -3.43370       -0.36620
C          3.92520       -3.89120       -1.62210
O         -0.11450       -2.57410        1.25250
C          2.93290       -4.46400        1.69530
H          1.82000       -3.99320       -0.10050
H          4.78670       -2.99040        0.05250
H          3.05200       -4.34130       -2.08310
H          4.84140       -3.81440       -2.19840
F          3.04300       -0.99320       -1.15290
F          0.93730       -1.79710       -1.22320
H          1.52050       -0.19470       -0.12080
Cl         1.98320       -1.84210        4.19090
Cl         1.14440        0.47720        2.69990
Cl        -0.81600       -1.36550        3.72980
Cl         3.48080       -6.05900        1.09610
Cl         4.22250       -3.82370        2.75470
Cl         1.49280       -4.82060        2.68780
