21
TSA8_9_CH2F_OMe_I
C          3.09550       -0.91030        0.55800
C          2.09970       -0.96570        1.69520
C          2.36720       -0.50140       -0.73870
H          3.80960       -0.10060        0.82640
O          2.27690       -0.13650        2.75630
C          3.95170       -2.20730        0.41250
C          3.25750       -3.40290       -0.20630
C          2.31260       -4.12000        0.40670
O          1.12420       -1.70050        1.64050
I          5.72020       -1.79720       -0.75020
H          4.36780       -2.49370        1.40380
H          3.56720       -3.72770       -1.19560
H          1.98240       -3.89360        1.41120
H          1.87400       -4.97400       -0.09870
F          3.25190       -0.29440       -1.77880
H          1.81200        0.44620       -0.57100
H          1.63600       -1.28220       -1.03840
C          1.43410       -0.08410        3.84600
H          1.80700        0.68210        4.55670
H          1.41320       -1.06860        4.36000
H          0.40800        0.19580        3.52470
