21
TSA8_9_CH2F_OMe_I
C          1.85220       -0.00600       -0.11490
C          1.84050       -0.58800        1.10610
C          1.56970       -0.63600       -1.44810
H          2.06080        1.06040       -0.15230
O          2.03610        0.23050        2.17030
C          4.50020       -3.76110        1.65670
C          3.78860       -2.86860        0.96230
C          2.30090       -2.99950        0.77400
O          1.64110       -1.92130        1.34450
I          6.58560       -3.52210        1.87130
H          4.02490       -4.62130        2.11790
H          4.29510       -2.02010        0.51140
H          1.92280       -3.92430        1.26180
H          2.09740       -3.11620       -0.29790
F          2.70440       -0.58290       -2.23510
H          0.76430       -0.05410       -1.94120
H          1.19240       -1.66450       -1.39830
C          2.07100       -0.20760        3.47700
H          2.23450        0.66010        4.14720
H          2.90490       -0.92960        3.61500
H          1.10730       -0.69070        3.74530
