21
TSA8_9_CH2F_OMe_I
C          2.92160       -0.78880        0.60980
C          1.57590       -1.09090        1.33380
C          2.62980       -0.53080       -0.87900
H          3.37900        0.13500        1.02680
O          1.14360       -0.06750        2.20970
C          3.87630       -1.97540        0.87050
C          3.22730       -3.31680        0.49870
C          1.72900       -3.32670        0.85780
O          1.46030       -2.39870        1.88810
I          5.84870       -1.79940        0.04500
H          4.03720       -2.00560        1.97050
H          3.33850       -3.58490       -0.57370
H          1.43200       -4.34910        1.16920
H          1.10580       -3.09310       -0.03780
F          3.77660       -0.16910       -1.55930
H          1.90540        0.30660       -0.97170
H          2.18760       -1.42380       -1.36650
C          1.79840       -0.17590        3.45580
H          1.62550        0.76120        4.02340
H          2.90070       -0.28050        3.35190
H          1.37120       -1.01130        4.05140
