21
TSA8_9_I_CCl3_OMe
C          1.79650       -0.14500       -0.08900
C          1.51930       -1.05880       -1.05370
I          2.09030        1.94310       -0.35690
H          1.84540       -0.43080        0.95310
C          1.24450       -2.51930       -0.72920
C          3.67760       -0.14360       -5.14400
C          2.81180       -0.69780       -4.27720
C          2.31940        0.06730       -3.08440
O          1.44250       -0.72920       -2.37360
O          4.15920       -0.79250       -6.24030
H          4.01780        0.87320       -4.97020
H          2.45420       -1.71240       -4.42350
H          1.78830        0.98020       -3.42860
H          3.20140        0.34700       -2.46970
Cl         2.43820       -3.52680       -1.58580
Cl         1.31790       -2.95720        1.00590
Cl        -0.37860       -2.95120       -1.32280
C          3.84400       -2.08200       -6.61940
H          4.39250       -2.33120       -7.55060
H          2.75410       -2.16870       -6.81590
H          4.14650       -2.79990       -5.82720
