21
TSA8_9_I_CCl3_OMe
C          3.07320       -1.23040       -2.26270
C          1.57280       -1.55800       -2.06040
I          3.74980        0.40770       -1.01410
H          3.74460       -2.07250       -1.99340
C          1.17790       -2.31550       -0.77660
C          3.28050       -0.90150       -3.76160
C          1.99860       -0.29420       -4.38740
C          1.15290        0.42920       -3.33110
O          0.75180       -0.40380       -2.23980
O          3.59590       -2.10480       -4.44540
H          4.13650       -0.18950       -3.80190
H          1.35200       -1.11730       -4.76560
H          0.23920        0.80780       -3.83530
H          1.70670        1.30960       -2.94650
Cl         2.13130       -3.81230       -0.59950
Cl         1.35350       -1.33520        0.70240
Cl        -0.53350       -2.79290       -0.90610
C          4.25000       -1.82680       -5.66570
H          5.19390       -1.25980       -5.50790
H          3.57280       -1.30360       -6.37470
H          4.53250       -2.79150       -6.13490
