22
TSA8_9_CH2F_NH2_CCl3
C          1.76480       -0.05040       -0.10560
C          1.49540       -0.76230       -1.22610
C          1.85800        1.44780       -0.01020
H          1.89820       -0.58920        0.82820
N          1.36100       -2.17160       -1.12640
C          2.50200        0.56270       -5.54880
C          2.68550        0.00440       -4.34210
C          2.21810        0.65440       -3.07430
O          1.33100       -0.20470       -2.45520
C          2.96620       -0.11990       -6.80980
H          2.00560        1.52670       -5.62250
H          3.18440       -0.95780       -4.26220
H          1.71250        1.62310       -3.27930
H          3.11300        0.83940       -2.44030
F          3.12360        1.80540        0.41380
H          1.11560        1.79840        0.73690
H          1.62860        1.96940       -0.95570
H          1.15470       -2.72710       -1.96930
H          1.47290       -2.66180       -0.22590
Cl         2.58640        0.89230       -8.22550
Cl         4.72900       -0.38790       -6.76500
Cl         2.13890       -1.68860       -7.00220
