24
TSA8_9_Et_CH2F_OH
C          1.88640        0.20540       -0.13520
C          1.47160        1.45470       -0.49960
C          1.96640       -0.45130        1.22310
H          2.20190       -0.46070       -0.93500
C          1.48540        1.80260       -1.96600
C          2.80150        3.93780        2.80750
C          2.39970        2.80710        2.20750
C          0.99720        2.64340        1.67680
O          1.01390        2.45940        0.31000
O          4.06390        4.07310        3.27190
H          2.11440        4.76940        2.92920
H          3.10610        1.99490        2.09640
H          0.41940        3.57140        1.87530
H          0.42920        1.83990        2.18080
C          3.39000       -0.93090        1.49510
H          1.29440       -1.33570        1.21580
H          1.65740        0.17720        2.06120
H          3.71620       -1.64390        0.70780
H          3.42740       -1.44950        2.47640
H          4.09510       -0.07390        1.51770
F          0.20340        2.12040       -2.37440
H          1.86290        0.97700       -2.60640
H          2.14280        2.68340       -2.12260
H          4.72540        3.37090        3.19070
