19
TSA8_9_NH2_OH_NH2
C          3.02790       -1.16760        0.52470
C          1.55720       -1.03750        0.87670
N          3.33990       -0.39470       -0.68190
H          3.62150       -0.74110        1.36390
O          1.17630       -0.47900        2.04600
C          3.46270       -2.65030        0.38360
C          2.77340       -3.36190       -0.76530
C          1.97850       -4.41840       -0.57170
O          0.70020       -1.42840        0.09950
N          4.91480       -2.73030        0.21330
H          3.20950       -3.15460        1.34500
H          2.93290       -3.01120       -1.78030
H          1.79080       -4.80740        0.42390
H          1.50670       -4.90250       -1.42070
H          3.13800        0.61620       -0.50420
H          2.74240       -0.70340       -1.48260
H          1.81810       -0.14980        2.69080
H          5.20010       -2.30120       -0.69690
H          5.21050       -3.73390        0.21460
