19
TSA8_9_NH2_OH_NH2
C          1.79630       -0.12190        0.16600
C          1.50220       -1.05470        1.11600
N          2.11690       -0.35050       -1.19920
H          1.77110        0.92020        0.47230
O          1.19000       -0.60740        2.35590
C          4.24600       -4.20300        0.13480
C          3.44680       -3.15880       -0.12830
C          1.94510       -3.25870       -0.02130
O          1.47870       -2.41420        0.96510
N          5.65470       -4.07950        0.04510
H          3.82170       -5.15890        0.42780
H          3.89420       -2.21260       -0.41240
H          1.65960       -4.29290        0.26930
H          1.42850       -3.08030       -0.98210
H          2.31000        0.46420       -1.79880
H          2.14610       -1.26490       -1.64980
H          1.17540        0.32990        2.59790
H          6.09670       -3.18740       -0.22270
H          6.25310       -4.88930        0.26080
