18
TSA8_9_OH_I_Me
C          3.11980        1.31300       -0.64030
C          1.73710        0.96220       -1.13210
O          3.36750        0.66810        0.58340
H          3.85670        0.96470       -1.40170
I          1.48940       -0.01920       -2.98480
C          3.31300        2.84240       -0.49070
C          2.40240        3.41970        0.57210
C          1.48440        4.34960        0.29120
O          0.74960        1.22320       -0.46300
C          4.76730        3.17240       -0.13350
H          3.10000        3.31340       -1.47770
H          2.49760        3.07010        1.59660
H          1.35630        4.72690       -0.71840
H          0.85070        4.74030        1.08070
H          3.56520       -0.28200        0.37290
H          5.45250        2.78430       -0.91720
H          5.05000        2.72280        0.84280
H          4.90350        4.27360       -0.07050
