18
TSA8_9_Br_CN_CF3
C          2.96920        1.85520       -0.24040
C          1.84970        1.62910       -1.24800
Br         3.10990        0.28500        0.92890
H          3.89960        1.89890       -0.84470
C          1.94540        0.51500       -2.15610
C          2.82020        3.18160        0.56250
C          1.88690        3.03020        1.74960
C          0.60870        3.41540        1.72060
O          0.96400        2.44960       -1.40250
C          4.19030        3.71900        1.02110
H          2.43050        3.96810       -0.12240
H          2.26680        2.58010        2.66520
H          0.17080        3.84360        0.82630
H         -0.01610        3.27860        2.59900
N          1.99490       -0.38080       -2.88950
F          4.85590        2.78900        1.79970
F          4.96400        4.00990       -0.08800
F          4.02610        4.88500        1.75100
