18
TSA8_9_NO2_NH2_I
C          1.64200       -1.79590        0.43930
C          0.99340       -0.64470        1.18690
N          1.43780       -1.62260       -0.99500
H          2.73860       -1.76870        0.62650
N          1.73790        0.19210        1.94710
C          1.14590       -3.15970        0.99980
C         -0.34510       -3.37690        0.86090
C         -1.13660       -3.52270        1.92850
O         -0.21230       -0.46270        1.09790
I          2.19210       -4.80780        0.10620
H          1.42550       -3.18880        2.07690
H         -0.79820       -3.42090       -0.12290
H         -0.73550       -3.48750        2.93680
H         -2.20230       -3.67770        1.79620
O          1.85150       -0.63800       -1.53010
O          0.84120       -2.53900       -1.72690
H          1.29310        0.97370        2.45060
H          2.75610        0.06260        2.03840
