20
TSA8_9_NH2_OH_CF3
C          1.80360        0.16130       -0.02080
C          1.52240        1.47420       -0.21540
N          2.01810       -0.43870        1.24860
H          1.83210       -0.49330       -0.88750
O          1.24890        1.90410       -1.46910
C          2.76090        4.79370        2.82020
C          2.92270        3.93620        1.79900
C          2.35710        2.54600        1.83150
O          1.47350        2.40470        0.77790
C          3.31550        6.19310        2.81040
H          2.20710        4.48190        3.70150
H          3.47430        4.23270        0.91190
H          1.81770        2.35700        2.78480
H          3.21260        1.84210        1.74590
H          2.22290       -1.44690        1.29530
H          1.88940        0.06350        2.13470
H          1.25070        1.31820       -2.23990
F          3.99550        6.47470        1.63750
F          2.27450        7.09160        2.94830
F          4.18330        6.34240        3.87550
