19
TSA8_9_NH2_CHF2_H
C          1.73930       -0.11170        0.12250
C          1.45720       -1.42850       -0.04900
N          1.96950        0.80330       -0.93930
H          1.75830        0.29310        1.13040
C          1.13930       -2.27740        1.15200
C          3.76440       -3.42480       -3.62870
C          2.86880       -3.27500       -2.65030
C          2.33470       -1.92090       -2.28850
O          1.42270       -2.05540       -1.25830
H          4.13890       -4.41330       -3.87460
H          4.12900       -2.56830       -4.18770
H          2.52500       -4.15270       -2.10940
H          1.82500       -1.48440       -3.17360
H          3.19370       -1.28070       -1.98950
H          1.85740        0.55230       -1.92860
H          2.17350        1.78740       -0.71490
F         -0.12990       -2.80750        1.01570
F          2.05420       -3.31060        1.23390
H          1.17820       -1.69790        2.09930
