17
TSA8_9_CBr3_H_F
C          1.68790        0.64840        1.50080
C          0.93590        1.20340        0.30920
C          1.56830       -0.91060        1.56690
H          2.76030        0.86730        1.30010
H          1.48710        1.71910       -0.47060
C          1.36700        1.41810        2.82590
C         -0.04070        1.31210        3.36480
C         -1.08760        1.92820        2.80740
O         -0.26420        1.03590        0.16900
F          2.23060        0.99310        3.81840
H          1.58990        2.49790        2.67910
H         -0.20580        0.74850        4.27890
H         -0.97840        2.54870        1.92610
H         -2.07170        1.83410        3.25450
Br         2.13600       -1.69300       -0.12240
Br         2.73930       -1.68960        2.90900
Br        -0.23390       -1.55780        1.91610
