17
TSA8_9_CBr3_H_F
C          1.81480        0.02870        0.00770
C          1.15810        1.04480        0.59400
C          2.07990       -1.35570        0.56850
H          2.20020        0.21410       -0.99130
H          1.05330        1.97340        0.03730
C         -0.19140        2.27050        4.86060
C         -0.53560        1.56820        3.77650
C         -0.10570        1.97450        2.39740
O          0.62630        0.95430        1.83320
F         -0.60280        1.86670        6.09060
H          0.41560        3.16700        4.77720
H         -1.14490        0.67650        3.89230
H          0.50790        2.90300        2.42800
H         -1.01230        2.16640        1.78350
Br         1.29820       -2.65000       -0.63950
Br         3.99390       -1.63890        0.60030
Br         1.40450       -1.74990        2.35190
