17
TSA8_9_CBr3_H_F
C          1.68450        0.65310        1.97050
C          1.24370        1.52520        0.77700
C          1.57820       -0.87270        1.63630
H          2.76710        0.83240        2.15090
H          1.58710        2.58040        0.87740
C          0.92930        1.18150        3.21920
C         -0.57580        1.27640        2.97930
C         -0.82170        2.06690        1.68580
O         -0.16030        1.46880        0.58220
F          1.19710        0.44550        4.35750
H          1.28160        2.22010        3.40830
H         -1.03400        0.27280        2.91780
H         -0.50810        3.12900        1.80500
H         -1.91300        2.08110        1.48480
Br        -0.18050       -1.54490        1.14240
Br         2.73920       -1.26330        0.12640
Br         2.23530       -1.97300        3.09620
