15
TSA8_9_H_OH_Cl
C          2.34950       -0.33740       -0.00390
C          1.43230       -0.91510       -0.78720
H          2.85610        0.56720       -0.32700
H          2.60110       -0.75970        0.96370
O          0.80030       -2.04340       -0.38410
C         -0.32650        1.48020       -3.73390
C         -0.76710        0.35240       -3.16640
C          0.16610       -0.78200       -2.86270
O          1.15050       -0.35290       -1.99040
Cl        -1.43740        2.79360       -4.08530
H          0.72290        1.59930       -3.98760
H         -1.82080        0.24890       -2.92270
H          0.64080       -1.12570       -3.80650
H         -0.42070       -1.62710       -2.44220
H          0.98420       -2.46930        0.46540
