19
TSA8_9_OMe_OH_H
C          0.66140       -0.57320       -1.15500
C          1.69090       -1.17990       -0.22190
O          1.29110        0.30570       -2.07110
H         -0.12990       -0.04340       -0.57200
O          1.59040       -1.01750        1.11440
C         -0.05390       -1.67260       -1.95660
C         -0.81210       -2.60910       -1.04970
C         -0.54800       -3.91790       -1.00270
O          2.62600       -1.81880       -0.67780
H         -0.78350       -1.20110       -2.64970
H          0.69050       -2.22570       -2.57230
H         -1.59600       -2.20530       -0.41550
H          0.22910       -4.35790       -1.62000
H         -1.11430       -4.56070       -0.33640
C          1.56320        1.54900       -1.45840
H          1.98820        2.22930       -2.22470
H          2.32470        1.44260       -0.65540
H          0.63650        2.03450       -1.08000
H          0.86470       -0.51840        1.51360
