17
TSA8_9_I_H_CF3
C          2.13590       -0.12160        2.43360
C          1.02290       -0.84210        1.62130
I          3.88170        0.17430        1.19740
H          1.78550        0.90590        2.67290
H          0.05030       -0.43920        1.97620
C          2.38830       -0.93270        3.71850
C          2.83940       -2.36040        3.35320
C          2.22170       -2.82190        2.02060
O          0.94440       -2.25420        1.83280
C          3.33510       -0.26660        4.73250
H          1.39760       -1.02190        4.21950
H          3.94220       -2.47040        3.25980
H          2.15300       -3.92920        2.01760
H          2.87110       -2.56080        1.15710
F          4.61070       -0.12680        4.21680
F          2.85120        0.98290        5.07670
F          3.40590       -1.04080        5.87710
