20
TSA8_9_I_Me_CF3
C          2.08020        2.24370        0.08200
C          0.87990        2.49720       -0.79640
I          1.71980        0.40100        1.13690
H          2.97920        2.08420       -0.55370
C          1.02490        2.53790       -2.28800
C          2.35350        3.41580        1.06400
C          3.53560        3.07330        1.94660
C          3.42590        2.98580        3.27640
O         -0.22090        2.66710       -0.29220
C          2.65460        4.74620        0.33710
H          1.44800        3.56640        1.69430
H          4.50430        2.89390        1.48820
H          2.47700        3.15780        3.77520
H          4.29490        2.73850        3.87700
H          1.73150        3.34500       -2.57320
H          0.04420        2.73270       -2.77230
H          1.41620        1.56450       -2.65050
F          3.75640        4.61060       -0.49050
F          1.57210        5.15310       -0.42130
F          2.91640        5.73680        1.26840
