19
TSA8_9_Br_OMe_OH
C          1.87440       -0.11060       -0.01120
C          1.84430        0.32950        1.26620
Br         1.77410       -1.91370       -0.65920
H          1.94140        0.63270       -0.80110
O          1.89940        1.67190        1.44770
C          4.45670       -2.15270        3.51740
C          3.68480       -1.81910        2.47130
C          2.18480       -1.76210        2.58280
O          1.75850       -0.46470        2.37780
O          5.80410       -2.17470        3.41590
H          4.00580       -2.40410        4.47240
H          4.14700       -1.56360        1.52210
H          1.86630       -2.05940        3.60510
H          1.69440       -2.47360        1.89820
C          2.00240        2.26340        2.68900
H          2.03940        3.36520        2.56660
H          2.93530        1.92960        3.19080
H          1.12470        1.99770        3.31630
H          6.26680       -1.94050        2.59860
