26
TSA8_9_Et_NO2_OMe
C          2.44050        0.88780       -0.91320
C          1.27150       -0.06890       -1.14130
C          2.43130        1.28120        0.58920
H          3.38310        0.34720       -1.12480
N          1.46610       -1.35310       -1.55770
C          2.31550        2.10690       -1.88730
C          2.10510        1.66640       -3.33050
C          0.99390        1.97290       -4.00910
O          0.13210        0.33630       -0.94590
O          3.37430        3.05450       -1.77920
H          1.39800        2.65430       -1.57450
H          2.86440        1.07490       -3.83160
H          0.87380        1.63740       -5.03380
H          0.19840        2.55680       -3.55600
C          3.62720        2.10810        1.06030
H          2.44250        0.34300        1.18800
H          1.49610        1.83170        0.83320
H          4.57500        1.56730        0.85700
H          3.54590        2.26940        2.15600
H          3.64970        3.10750        0.58700
O          0.53010       -2.07550       -1.72910
O          2.67770       -1.81690       -1.77910
C          4.63580        2.56100       -2.19190
H          5.36630        3.39100       -2.10760
H          4.65130        2.26270       -3.25900
H          5.01260        1.75840       -1.52860
