26
TSA8_9_Et_NO2_OMe
C          2.52540        0.91090       -1.22060
C          1.30780        0.04320       -1.65910
C          2.48970        1.06430        0.32990
H          3.44720        0.37720       -1.53710
N          1.34050       -1.27840       -1.06140
C          2.41630        2.28810       -1.96070
C          2.06640        2.13200       -3.45600
C          0.87360        1.19220       -3.58920
O          1.22370       -0.06780       -3.06780
O          3.51250        3.17610       -1.77060
H          1.52880        2.79740       -1.52300
H          2.89500        1.68870       -4.04150
H          0.62910        1.07580       -4.66640
H         -0.03830        1.60500       -3.09700
C          3.64160        1.84610        0.95790
H          2.52230        0.05680        0.79400
H          1.53400        1.54990        0.62800
H          4.61010        1.35440        0.73520
H          3.51170        1.85690        2.06110
H          3.65320        2.90060        0.62210
O          1.63270       -2.22240       -1.73110
O          0.64660       -1.47970        0.03760
C          4.76420        2.63200       -2.15280
H          5.46980        3.47280       -2.30970
H          4.74870        2.07500       -3.10690
H          5.18880        1.99740       -1.35270
