22
TSA8_9_NO2_Me_Me
C          2.64260       -0.19120       -1.90820
C          1.68620       -1.01160       -1.06800
N          2.86780        1.10540       -1.28680
H          3.61260       -0.74150       -1.93840
C          2.14110       -2.30240       -0.45490
C          2.16310       -0.07410       -3.38540
C          0.84400        0.65710       -3.53670
C         -0.24430        0.06040       -4.03270
O          0.54140       -0.62730       -0.87890
C          3.22190        0.62270       -4.24830
H          2.05690       -1.11250       -3.77520
H          0.77090        1.70030       -3.24890
H         -0.22590       -0.97990       -4.34140
H         -1.16950        0.61920       -4.13170
O          3.96450        1.40820       -0.92440
O          1.86820        1.93250       -1.06390
H          2.46100       -3.00240       -1.25500
H          1.32050       -2.77390        0.12680
H          2.99690       -2.10940        0.22540
H          3.38630        1.66800       -3.90930
H          2.89670        0.64040       -5.31090
H          4.18560        0.07260       -4.19210
