22
TSA8_9_NO2_Me_Me
C          2.64220       -0.17930       -2.02840
C          1.47800       -0.94870       -1.32620
N          2.75220        1.15910       -1.47160
H          3.60800       -0.71250       -1.86360
C          1.97400       -2.16000       -0.54300
C          2.39680       -0.16100       -3.55470
C          0.97870        0.33300       -3.89270
C         -0.04410       -0.19650       -2.87160
O          0.45510       -1.35180       -2.23040
C          3.46870        0.60610       -4.33330
H          2.43970       -1.22420       -3.88540
H          0.87760        1.43780       -3.96330
H         -0.99820       -0.42290       -3.39040
H         -0.29580        0.58340       -2.11520
O          3.76530        1.49840       -0.93710
O          1.74400        2.00310       -1.52910
H          2.43200       -2.90000       -1.23410
H          1.12300       -2.63780       -0.01490
H          2.72760       -1.84500        0.20950
H          3.46360        1.68090       -4.05340
H          3.27950        0.52010       -5.42430
H          4.47210        0.18260       -4.11570
