15
TSA8_9_F_Cl_OH
C          3.00860        1.07790       -1.43350
C          1.52900        1.00140       -1.71710
F          3.29380        0.39720       -0.26140
H          3.48780        0.53190       -2.27490
Cl         0.75340       -0.57260       -1.78480
C          3.63190        2.50020       -1.37020
C          3.33940        3.27050       -0.08880
C          2.13140        3.68000        0.31090
O          0.86940        1.99240       -1.98040
O          5.02810        2.38680       -1.50740
H          3.27940        3.08970       -2.24390
H          4.18060        3.52680        0.55010
H          1.23250        3.50250       -0.25360
H          2.03640        4.23140        1.24110
H          5.36810        1.83390       -0.75490
