15
TSA8_9_F_Cl_OH
C          3.07730        0.98580       -1.02490
C          1.56130        1.11640       -1.35030
F          3.26030        0.84780        0.34170
H          3.49340        0.07470       -1.50600
Cl         1.26210        0.54120       -3.01320
C          3.77920        2.25560       -1.51250
C          3.19080        3.48440       -0.79680
C          1.74350        3.23250       -0.33270
O          1.04030        2.44650       -1.26980
O          5.16370        2.19590       -1.29620
H          3.57010        2.37660       -2.60130
H          3.77290        3.77490        0.10540
H          1.23240        4.20710       -0.19150
H          1.72020        2.72940        0.66080
H          5.53600        1.60290       -2.00010
