23
TSA8_9_OMe_CF3_NO2
C          1.32590        1.02870        1.36280
C          1.63660        1.99080        0.17520
O          2.32610        0.02220        1.39670
H          0.28720        0.62870        1.24910
C          1.31780        1.41040       -1.20600
C          1.37100        1.87610        2.64530
C          0.31800        3.00410        2.57140
C         -0.01150        3.37320        1.11480
O          1.14830        3.32830        0.31270
N          1.18440        1.07840        3.84210
H          2.37680        2.35490        2.67840
H         -0.64670        2.73800        3.05590
H         -0.45700        4.38880        1.08630
H         -0.78260        2.68620        0.69740
C          1.75720       -1.25900        1.55830
H          1.33160       -1.37980        2.57630
H          2.56180       -2.01390        1.44540
H          1.00290       -1.47950        0.77030
F         -0.04560        1.22910       -1.34920
F          1.76110        2.28400       -2.18180
F          1.95840        0.19720       -1.37630
O          0.16580        0.47830        4.01960
O          2.13880        1.01390        4.74470
