15
TSA8_9_CN_H_Br
C          1.64030        0.02890        0.09090
C          1.65720       -0.43940        1.36090
C          1.73190       -0.76660       -1.11120
H          1.52710        1.09390       -0.07210
H          1.57890        0.28120        2.16880
C          2.28380       -4.95480        0.72050
C          2.07720       -3.67530        0.40380
C          1.10320       -2.80800        1.14320
O          1.77120       -1.74730        1.71940
Br         3.55120       -5.98200       -0.27560
H          1.74850       -5.42520        1.53880
H          2.63390       -3.24370       -0.41820
H          0.58720       -3.37450        1.95030
H          0.31560       -2.45110        0.44920
N          1.80010       -1.36710       -2.09930
