15
TSA8_9_CN_H_Br
C          2.57730       -1.52700        0.28160
C          1.48870       -0.92560        1.21560
C          2.13500       -1.26930       -1.10550
H          3.56170       -1.02010        0.45930
H          1.86770       -0.05650        1.79360
C          2.68420       -3.03440        0.56930
C          1.29910       -3.66310        0.42910
C          0.28550       -2.88400        1.28850
O          0.91810       -1.89360        2.08210
Br         3.97870       -4.01700       -0.49470
H          3.01310       -3.16800        1.62260
H          0.97420       -3.63090       -0.63850
H         -0.19820       -3.62130        1.95980
H         -0.51820       -2.43040        0.66420
N          1.78910       -1.02390       -2.18010
