21
TSA8_9_Br_Et_CN
C          1.63500       -0.03450        0.08140
C          1.57560       -0.89440        1.15150
Br         1.67140       -0.52110       -1.78990
H          1.60260        1.04640        0.19990
C          1.73940       -0.49380        2.60940
C          1.17350       -4.99680        0.27850
C          1.04250       -3.84760       -0.37940
C          0.30590       -2.78510        0.29310
O          1.32320       -2.20440        1.02110
C          2.39600       -5.71370        0.09240
H          0.50540       -5.28480        1.08820
H          1.76770       -3.52560       -1.11770
H         -0.47740       -3.15080        1.00630
H         -0.19040       -2.09910       -0.40300
C          0.97840       -1.44540        3.56410
H          1.54020        0.58020        2.77520
H          2.79630       -0.67910        2.91030
H         -0.11960       -1.38480        3.42390
H          1.23870       -1.21570        4.61500
H          1.29010       -2.50870        3.41330
N          3.38960       -6.27140       -0.07870
