23
TSA8_9_NH2_CN_Et
C          1.62310       -0.00720        0.09930
C          1.43740       -1.20260        0.70920
N          1.73040        0.17830       -1.29520
H          1.64340        0.89020        0.71220
C          1.35220       -1.18640        2.14320
C          3.14360       -2.32250       -2.76100
C          2.65700       -2.98460       -1.70640
C          1.25730       -2.76180       -1.22680
O          1.27280       -2.41820        0.10770
C          4.53390       -2.55600       -3.27680
H          2.51450       -1.60510       -3.27860
H          3.26490       -3.71770       -1.18070
H          0.72080       -3.73140       -1.32770
H          0.67540       -2.02920       -1.82450
H          2.70420        0.19180       -1.62710
H          1.26220        1.00680       -1.69090
N          1.28580       -1.15880        3.29710
C          5.33900       -1.26210       -3.28160
H          4.44990       -2.93160       -4.31680
H          5.06970       -3.31790       -2.66840
H          4.83480       -0.49730       -3.91080
H          6.34620       -1.45880       -3.70620
H          5.45530       -0.86980       -2.24890
