23
TSA8_9_NH2_CN_Et
C          2.53660       -0.92070       -0.93690
C          1.31650       -1.31490       -0.03090
N          2.22780        0.41260       -1.47930
H          3.45300       -0.90220       -0.30470
C          1.49200       -0.76640        1.32660
C          2.77480       -1.91080       -2.13820
C          2.26790       -3.32580       -1.82950
C          0.91020       -3.24100       -1.17190
O          1.11350       -2.69980        0.10620
C          4.25460       -2.09330       -2.59280
H          2.15390       -1.55760       -2.99020
H          2.94350       -3.86360       -1.12560
H          0.48690       -4.25920       -1.06550
H          0.18400       -2.65010       -1.78350
H          3.01820        0.83120       -2.01260
H          1.87810        1.07650       -0.74910
N          1.66670       -0.35750        2.39870
C          5.03080       -0.85470       -3.02040
H          4.24740       -2.78810       -3.46200
H          4.84100       -2.58090       -1.78010
H          4.50080       -0.31040       -3.82620
H          6.01910       -1.18720       -3.41590
H          5.22430       -0.18850       -2.15490
