17
TSA8_9_H_H_CF3
C          2.10550       -0.17400       -0.29790
C          1.30010       -0.34250       -1.35620
H          2.78120        0.66890       -0.21350
H          2.08460       -0.89550        0.51220
H          0.63990       -1.20370       -1.36570
C          4.04380        1.34860       -4.20080
C          3.47760        1.09790       -3.01060
C          2.08900        1.58120       -2.67370
O          1.24810        0.51220       -2.41640
C          5.42430        0.85730       -4.52410
H          3.50250        1.91490       -4.95390
H          4.03090        0.53070       -2.26820
H          1.66550        2.14950       -3.52930
H          2.11660        2.27000       -1.80270
F          5.46120       -0.52340       -4.44850
F          5.76860        1.24740       -5.80520
F          6.33510        1.39030       -3.63030
