18
TSA8_9_CCl3_I_OH
C          1.79680       -0.02110       -0.01660
C          1.12390       -1.15080       -0.30790
C          2.15410        1.11780       -0.95460
H          2.12310        0.10580        1.01190
I          0.79260       -2.52340        1.28950
C         -0.00540       -3.47120       -4.18450
C         -0.37200       -2.46320       -3.37680
C         -0.10120       -2.49620       -1.90050
O          0.67390       -1.40950       -1.56070
O         -0.25270       -3.43040       -5.51220
H          0.49980       -4.34230       -3.77820
H         -0.87910       -1.59640       -3.79150
H          0.42260       -3.43580       -1.61830
H         -1.07050       -2.44560       -1.35970
Cl         1.62410        0.95090       -2.65450
Cl         1.43260        2.61140       -0.31260
Cl         3.92350        1.30710       -0.95730
H         -0.69660       -2.68160       -5.93510
