14
TSA8_9_H_I_I
C          1.12460        0.00460       -1.49440
C          1.71300       -1.18140       -0.78240
H          1.94960        0.70100       -1.75780
H          0.42390        0.53780       -0.81600
I          1.11530       -1.64800        1.18730
C          0.38090       -0.41010       -2.77100
C         -0.78960       -1.30370       -2.44790
C         -0.88340       -2.54750       -2.92590
O          2.54390       -1.88370       -1.33680
I         -0.35180        1.33210       -3.77220
H          1.09360       -0.91550       -3.46040
H         -1.57870       -0.92500       -1.80460
H         -0.11380       -2.96260       -3.56950
H         -1.74000       -3.16270       -2.67000
