23
TSA8_9_CN_NH2_Et
C          2.94930        0.87570        0.92190
C          1.90180        1.84230        0.35930
C          2.37960       -0.48640        0.80250
H          3.84070        0.92270        0.26440
N          1.99810        2.32550       -0.90340
C          3.30520        1.27800        2.40830
C          2.39220        0.53550        3.36410
C          1.24440        1.04550        3.80430
O          0.95620        2.19410        1.04730
C          4.78920        1.22700        2.88190
H          3.10600        2.37190        2.47060
H          2.62580       -0.49550        3.61690
H          0.93270        2.04450        3.52770
H          0.59030        0.43290        4.41360
N          1.87810       -1.52980        0.75300
H          1.29180        2.99200       -1.25670
H          2.74860        2.02000       -1.53730
C          5.44930       -0.14160        3.05100
H          4.82780        1.71420        3.88400
H          5.41840        1.84090        2.20070
H          5.52600       -0.67370        2.08380
H          6.47850        0.01180        3.45280
H          4.90650       -0.76090        3.79360
