17
TSA8_9_Cl_F_CH2F
C          1.82060        0.08590       -0.17860
C          1.47710        1.12830       -0.94380
Cl         2.02780        0.23540        1.56190
H          1.96740       -0.88820       -0.63390
F          1.30780        0.94870       -2.28010
C          2.30110        4.29740       -2.40120
C          2.98430        3.66980       -1.43030
C          2.30670        3.24490       -0.15580
O          1.27680        2.35850       -0.41140
C          2.92990        4.74360       -3.69250
H          1.24240        4.49940       -2.26270
H          4.04300        3.45840       -1.54420
H          1.89110        4.14370        0.34730
H          3.04830        2.77860        0.52770
F          4.27710        4.43080       -3.75530
H          2.81280        5.84290       -3.79170
H          2.40840        4.25010       -4.53900
