17
TSA8_9_Cl_F_CH2F
C          2.19270        1.69800       -1.75000
C          1.02590        1.51350       -0.73750
Cl         3.72560        1.09550       -1.03980
H          2.00080        1.06250       -2.64240
F         -0.12570        1.22030       -1.44730
C          2.25780        3.18590       -2.13560
C          2.50120        4.04730       -0.88010
C          1.91180        3.38370        0.37800
O          0.74120        2.66200        0.06650
C          3.25750        3.50670       -3.25620
H          1.24710        3.44710       -2.52210
H          3.57680        4.23900       -0.67290
H          1.68900        4.16820        1.13060
H          2.64650        2.70380        0.86340
F          4.55850        3.23650       -2.87100
H          3.18410        4.58220       -3.52450
H          3.01620        2.90650       -4.15920
