23
TSA8_9_CBr3_CBr3_CCl3
C          1.60400       -0.03330       -0.01350
C          1.45300       -1.12860       -0.80800
C          1.82800        1.39840       -0.46900
H          1.51770       -0.15380        1.05720
C          1.16580       -2.51390       -0.23750
C          3.79910       -1.91870       -4.78850
C          2.77720       -1.94060       -3.91590
C          2.60560       -0.82290       -2.93100
O          1.47860       -1.03870       -2.16560
C          4.08580       -2.99090       -5.81420
H          4.48020       -1.07100       -4.76490
H          2.06510       -2.75850       -3.90040
H          2.48430        0.13200       -3.48490
H          3.51710       -0.78660       -2.29720
Br         1.66300        2.57770        1.06320
Br         3.60900        1.70760       -1.17010
Br         0.49530        1.96020       -1.76280
Br         1.06990       -2.66080        1.70660
Br        -0.53160       -3.13390       -0.93460
Br         2.54470       -3.74410       -0.81950
Cl         4.02620       -2.26060       -7.43550
Cl         5.72880       -3.61420       -5.53340
Cl         2.95500       -4.37690       -5.78370
