23
TSA8_9_CBr3_CBr3_CCl3
C          3.02500       -1.18750       -1.86330
C          1.53120       -1.65450       -1.81710
C          3.38390        0.07030       -0.97740
H          3.65130       -2.01320       -1.47130
C          0.89240       -2.45420       -0.66940
C          3.39220       -1.01690       -3.39590
C          2.13470       -1.13700       -4.30610
C          0.95650       -0.35750       -3.70500
O          0.64550       -0.68670       -2.35360
C          4.46060       -2.04800       -3.89520
H          3.79390        0.00570       -3.55620
H          1.80410       -2.19450       -4.37930
H          0.06130       -0.53810       -4.33650
H          1.19570        0.72430       -3.76480
Br         3.30140       -0.32960        0.91670
Br         5.21770        0.66390       -1.21570
Br         2.28820        1.63800       -1.30530
Br         0.16580       -1.34980        0.75060
Br        -0.61170       -3.41680       -1.41950
Br         2.09880       -3.79040        0.05380
Cl         4.83130       -1.77580       -5.62280
Cl         6.00920       -1.92190       -3.02370
Cl         3.90070       -3.73890       -3.70960
