20
TSA8_9_CF3_Cl_Me
C          1.54710       -2.48230        0.03690
C          1.32570       -1.34290        1.01080
C          1.60870       -1.92800       -1.40910
H          2.55240       -2.90680        0.25550
Cl         2.55670       -0.95050        2.20110
C          0.51200       -3.62640        0.30140
C         -0.92530       -3.19860        0.08400
C         -1.81450       -3.17910        1.08250
O          0.30130       -0.67880        0.97790
C          0.78530       -4.88790       -0.52810
H          0.64900       -3.92320        1.36690
H         -1.25490       -2.90740       -0.90750
H         -1.53520       -3.46600        2.09160
H         -2.83740       -2.87160        0.89150
F          2.58180       -0.94560       -1.47920
F          1.95490       -2.91850       -2.30770
F          0.40290       -1.37040       -1.79260
H          0.61340       -4.71530       -1.60940
H          0.09790       -5.70140       -0.21030
H          1.82810       -5.23580       -0.36990
