20
TSA8_9_F_CBr3_Me
C          2.08940       -0.65970       -2.21600
C          0.91940       -1.61450       -2.28300
F          1.79060        0.30260       -1.26580
H          3.00230       -1.19850       -1.87870
C          1.04860       -3.05370       -1.83250
C          2.36870        0.04550       -3.56330
C          3.48780        1.04320       -3.37440
C          3.29830        2.35710       -3.53390
O         -0.16510       -1.18980       -2.66020
C          2.75400       -0.93540       -4.67770
H          1.44180        0.57730       -3.87660
H          4.47380        0.68530       -3.08820
H          2.32670        2.75650       -3.80840
H          4.12220        3.04650       -3.38080
Br         1.57330       -3.10240        0.03350
Br        -0.63130       -4.02040       -1.99510
Br         2.37920       -3.99980       -2.87830
H          3.67650       -1.49390       -4.40960
H          2.93670       -0.38120       -5.62340
H          1.93310       -1.65940       -4.86220
