23
TSA8_9_Et_Me_F
C          2.43520        0.45520        1.18910
C          1.25900        1.34410        0.83140
C          2.27210       -0.90510        0.46220
H          3.34170        0.95570        0.78050
C          1.49320        2.64780        0.12680
C          2.67650        0.34230        2.72600
C          1.67740       -0.49080        3.49800
C          0.42800       -0.09880        3.76230
O          0.11330        0.99290        1.06560
F          3.92840       -0.21030        2.93190
H          2.72470        1.35960        3.17320
H          2.00580       -1.44560        3.89830
H          0.05060        0.86280        3.44080
H         -0.22710       -0.74280        4.34020
C          3.47640       -1.83850        0.58470
H          2.12590       -0.70250       -0.62240
H          1.36830       -1.43370        0.83610
H          4.39220       -1.33780        0.20510
H          3.29400       -2.75090       -0.02110
H          3.63020       -2.16370        1.63240
H          2.12310        3.30560        0.76110
H          0.53100        3.16360       -0.07960
H          2.01240        2.46260       -0.83720
