23
TSA8_9_CCl3_CCl3_CF3
C          2.47540       -2.29090       -0.53340
C          0.91310       -2.07450       -0.69400
C          3.27950       -0.93760       -0.62230
H          2.65920       -2.65080        0.50220
C          0.08690       -2.47350        0.55660
C          2.89130       -3.45710       -1.49260
C          2.43180       -3.19790       -2.93990
C          1.07960       -2.47470       -2.97310
O          0.35190       -2.77020       -1.80870
C          4.34710       -3.95140       -1.44960
H          2.28270       -4.32150       -1.14310
H          3.15570       -2.64970       -3.57810
H          0.51670       -2.80210       -3.87120
H          1.18530       -1.37460       -3.08150
Cl         3.40470       -0.22580       -2.25150
Cl         2.54560        0.32140        0.40650
Cl         4.93740       -1.11920        0.01380
Cl         0.19540       -4.22940        0.86320
Cl         0.59210       -1.62060        2.03860
Cl        -1.62640       -2.06580        0.27960
F          4.72270       -4.21550       -0.14430
F          4.45240       -5.12370       -2.17790
F          5.21060       -3.02730       -2.00700
