16
TSA8_9_Br_F_NO2
C          1.65440        0.09600        0.12240
C          1.78400       -0.47440        1.32230
Br         1.29350       -0.94350       -1.44720
H          1.79690        1.16640        0.01580
F          2.09820        0.29850        2.39660
C          2.11870       -2.14760        4.45940
C          2.96870       -2.22220        3.42330
C          2.53680       -2.65530        2.04910
O          1.61100       -1.81170        1.46460
N          2.55130       -1.74710        5.75580
H          1.07320       -2.40480        4.30970
H          4.01780       -1.97630        3.56160
H          2.11250       -3.68040        2.09460
H          3.43320       -2.68580        1.39410
O          3.69000       -1.45650        5.96580
O          1.68180       -1.70120        6.74200
