16
TSA8_9_Br_F_NO2
C          2.04310       -0.29830        2.20990
C          1.03020       -1.04280        1.29310
Br         3.75250       -0.08300        1.28800
H          1.67600        0.73480        2.39450
F         -0.23180       -0.52620        1.52890
C          2.15100       -1.08280        3.52770
C          2.64380       -2.51690        3.25580
C          2.20180       -3.00270        1.86280
O          0.95090       -2.45530        1.50840
N          2.97140       -0.41570        4.52260
H          1.11230       -1.16360        3.92280
H          3.74920       -2.62500        3.30380
H          2.14770       -4.11080        1.86640
H          2.95100       -2.74390        1.08290
O          4.13540       -0.22860        4.33170
O          2.43350       -0.02610        5.65830
