17
TSA8_9_Me_I_F
C          1.57900       -0.82090        1.49820
C          0.81520        0.44070        1.16930
C          1.43260       -1.83440        0.35370
H          2.65340       -0.54010        1.55850
I          1.83460        2.28380        1.02110
C          1.22800       -1.44840        2.87680
C         -0.18380       -1.96720        3.03240
C         -1.24600       -1.16840        3.16920
O         -0.37940        0.41220        0.92160
F          2.09140       -2.51160        3.08740
H          1.42560       -0.71290        3.68690
H         -0.34020       -3.04100        3.08400
H         -1.14660       -0.08920        3.17790
H         -2.23330       -1.59880        3.30100
H          0.37560       -2.15890        0.24540
H          2.06220       -2.72930        0.54370
H          1.76520       -1.37870       -0.60380
