25
TSA8_9_NH2_CH2F_Et
C          1.72650        0.12590       -0.02220
C          1.46280        1.42870        0.21650
N          1.76130       -0.84760        1.01020
H          1.89460       -0.20990       -1.04160
C          1.37000        2.40510       -0.92340
C          4.45660        3.08460        1.87490
C          3.13190        3.22630        2.04050
C          2.24630        2.06860        2.41560
O          1.24620        1.88910        1.47560
C          5.34120        4.25380        1.53180
H          4.91840        2.10930        2.00110
H          2.67040        4.20180        1.91820
H          1.77030        2.31510        3.38720
H          2.83290        1.13560        2.55210
H          1.53950       -0.61720        1.98730
H          1.95830       -1.83010        0.77230
F          0.11020        2.97390       -0.93860
H          1.55000        1.91760       -1.90590
H          2.12750        3.20430       -0.78720
C          6.06260        4.01680        0.21080
H          6.09240        4.37980        2.34070
H          4.75260        5.19420        1.45400
H          6.68850        3.10070        0.27030
H          6.72170        4.88270       -0.01130
H          5.32700        3.90670       -0.61430
