19
TSA8_9_CBr3_NH2_I
C          1.74150       -1.81550        0.30310
C          0.91560       -0.73740        1.05020
C          1.62470       -1.57330       -1.24590
H          2.81700       -1.64550        0.53000
N          1.41160       -0.41780        2.39230
C          1.34490       -3.20320        0.90600
C         -0.16890       -3.39710        0.93830
C         -0.82610       -2.19890        1.63480
O         -0.48850       -0.96830        1.01410
I          2.28940       -4.97190        0.14520
H          1.67190       -3.20380        1.96710
H         -0.57870       -3.54160       -0.07630
H         -0.57850       -2.18190        2.71690
H         -1.92660       -2.33140        1.58280
Br         2.16220        0.25670       -1.64210
Br         2.85740       -2.64880       -2.28920
Br        -0.14430       -1.77940       -2.02530
H          1.38760       -1.24140        3.03100
H          0.82250        0.34560        2.79490
