22
TSA8_9_I_Et_NO2
C          1.97560        0.21080       -0.05240
C          1.47500        1.44920       -0.29600
I          2.36510       -0.78820        1.78180
H          2.21530       -0.42860       -0.89650
C          1.27170        1.87720       -1.73050
C          3.56500        3.74820        1.47860
C          2.98250        2.69680        2.08140
C          1.49760        2.47370        1.97500
O          1.12390        2.37090        0.64980
N          4.96650        3.98570        1.54430
H          2.94800        4.44270        0.91380
H          3.57730        1.98970        2.65110
H          0.98080        3.35220        2.41470
H          1.16370        1.59270        2.55180
C          2.10670        3.11800       -2.03730
H          0.19680        2.10790       -1.89050
H          1.56090        1.07690       -2.44650
H          1.80880        3.96120       -1.37820
H          1.94910        3.42440       -3.09250
H          3.18600        2.90170       -1.88430
O          5.69020        3.24740        2.14240
O          5.47520        5.02710        0.92370
