29
TSA8_9_CCl3_Et_Et
C          2.78980        0.29570       -2.03850
C          1.48560       -0.42230       -2.36880
C          2.72090        0.96980       -0.63000
H          3.58110       -0.47490       -1.93360
C          1.47650       -1.92440       -2.53750
C          3.25530        1.25250       -3.19690
C          2.26610        2.36910       -3.47280
C          2.58820        3.65700       -3.31950
O          0.44700        0.21290       -2.48250
C          3.51060        0.51030       -4.53310
H          4.22720        1.70370       -2.90080
H          1.26780        2.12780       -3.82190
H          1.85380        4.42690       -3.53440
H          3.57470        3.95540       -2.97960
Cl         1.47000        2.23870       -0.48190
Cl         2.36770       -0.26210        0.61560
Cl         4.29410        1.69460       -0.19270
C          0.08640       -2.48470       -2.83980
H          1.85180       -2.39400       -1.60310
H          2.15720       -2.19760       -3.37060
H         -0.61180       -2.25000       -2.00750
H          0.14480       -3.58700       -2.95360
H         -0.30790       -2.04990       -3.78330
C          4.65160       -0.50870       -4.46380
H          3.80370        1.26240       -5.29970
H          2.58420        0.00850       -4.88540
H          5.59080       -0.01240       -4.13960
H          4.81460       -0.94520       -5.47200
H          4.42070       -1.34290       -3.77340
