22
TSA8_9_NH2_CBr3_CF3
C          1.70490        0.11150       -0.12910
C          1.51260        1.38450       -0.59210
N          1.73430       -0.30740        1.22690
H          1.83350       -0.69090       -0.84070
C          1.47390        1.67210       -2.08930
C          4.05220        3.67130        1.83390
C          3.22480        2.63810        1.60740
C          1.73630        2.82660        1.46190
O          1.35840        2.51200        0.17230
C          5.54580        3.51520        1.93760
H          3.64600        4.67430        1.93510
H          3.62550        1.63690        1.49440
H          1.46730        3.89140        1.62980
H          1.15360        2.27420        2.21740
H          1.88910       -1.30660        1.42390
H          1.57110        0.29600        2.03110
Br        -0.23300        2.47530       -2.53430
Br         2.86650        2.95980       -2.49570
Br         1.73190        0.16910       -3.30680
F          5.94330        2.19810        1.78080
F          6.14390        4.27900        0.95290
F          5.96530        3.96510        3.17440
