22
TSA8_9_NO2_H_Et
C          1.66660        2.07870        1.42840
C          1.48860        1.90460       -0.06120
N          1.95490        0.78220        2.03580
H          2.55930        2.72810        1.57440
H          2.17750        2.39030       -0.74500
C          0.45130        2.84750        2.04490
C         -0.85950        2.09430        1.88930
C         -1.87080        2.58510        1.16490
O          0.59180        1.20870       -0.51130
C          0.70600        3.22730        3.52420
H          0.38420        3.81020        1.48610
H         -0.99900        1.13610        2.37650
H         -1.78860        3.54130        0.65760
H         -2.79570        2.02490        1.07560
O          2.91280        0.16810        1.67250
O          1.19790        0.27030        2.98210
C         -0.39960        4.11570        4.09870
H          1.66170        3.79180        3.59010
H          0.79440        2.32770        4.16510
H         -0.49600        5.04750        3.50220
H         -0.14950        4.38800        5.14590
H         -1.37290        3.58150        4.10220
