22
TSA8_9_NO2_H_Et
C          2.12600        0.19970       -0.27290
C          1.29170        1.25010       -0.22370
N          2.62860       -0.46160        0.88750
H          2.42300       -0.16940       -1.25130
H          0.94360        1.68710       -1.15700
C         -0.16430        4.27390        3.01800
C         -0.30190        3.04070        2.50840
C         -0.08250        2.74400        1.05590
O          0.87320        1.76000        0.95650
C         -0.36170        4.55150        4.48520
H          0.10520        5.10290        2.36860
H         -0.57700        2.21340        3.15560
H          0.23960        3.65170        0.49780
H         -1.03670        2.37650        0.62100
O          3.35210       -1.40110        0.75760
O          2.29750       -0.07030        2.10030
C         -1.76860        4.19130        4.96080
H         -0.18850        5.63340        4.67050
H          0.38340        3.97150        5.07090
H         -2.52920        4.76780        4.39340
H         -1.86580        4.43250        6.04020
H         -1.96280        3.10570        4.83260
