22
TSA8_9_NO2_H_Et
C          1.62560        2.23430        1.56710
C          1.28630        2.06740        0.07600
N          1.97780        0.92760        2.11840
H          2.51460        2.89580        1.66490
H          1.19520        3.04220       -0.45550
C          0.41350        2.94270        2.24080
C         -0.87960        2.16430        1.94230
C         -1.00280        1.96630        0.42500
O          0.12210        1.27540       -0.09330
C          0.62070        3.23360        3.74440
H          0.31160        3.93540        1.74410
H         -0.88790        1.17780        2.44760
H         -1.14120        2.94230       -0.09350
H         -1.91500        1.36840        0.22060
O          2.91530        0.34150        1.66760
O          1.29810        0.37320        3.09790
C         -0.53290        4.04310        4.33800
H          1.55520        3.82370        3.86670
H          0.72160        2.30340        4.33490
H         -0.65050        5.00590        3.79690
H         -0.32300        4.25940        5.40680
H         -1.48310        3.47140        4.27780
