17
TSA8_9_I_CF3_Cl
C          1.96020       -0.23140        0.10640
C          1.51420       -1.41690        0.60420
I          2.54280        0.31610       -1.86340
H          2.03420        0.62570        0.76640
C          1.12230       -1.52180        2.06090
C          4.03630       -4.25780       -1.36300
C          3.40860       -3.08920       -1.19190
C          1.91170       -2.96420       -1.31570
O          1.36830       -2.57430       -0.10830
Cl         5.78110       -4.35980       -1.19210
H          3.48320       -5.16060       -1.60300
H          3.99340       -2.20910       -0.94620
H          1.47110       -3.95030       -1.57710
H          1.61740       -2.27770       -2.12850
F         -0.20220       -1.90920        2.14710
F          1.90850       -2.48470        2.66620
F          1.27830       -0.33120        2.75070
