22
TSA8_9_NH2_NO2_OMe
C          1.61200        0.10340        0.00210
C          1.40210        1.30170       -0.60290
N          1.87010       -0.06170        1.38870
H          1.54580       -0.80430       -0.58950
N          1.05790        1.34190       -1.99010
C          3.20650        5.28690        0.91670
C          3.17710        4.08090        0.32180
C          2.47750        2.90030        0.92350
O          1.49030        2.49900        0.04420
O          3.83330        6.36730        0.37350
H          2.70960        5.42070        1.87270
H          3.66470        3.92280       -0.63430
H          2.01570        3.15030        1.90370
H          3.24880        2.11460        1.06790
H          2.01820       -1.01140        1.75860
H          1.82330        0.71210        2.06260
O          0.86780        2.39320       -2.52310
O          0.94860        0.23680       -2.69710
C          4.50420        6.38680       -0.83380
H          4.90690        7.40440       -1.01180
H          3.80990        6.13080       -1.66300
H          5.35180        5.66850       -0.81390
