16
TSA8_9_Cl_NH2_H
C          2.13090       -0.04960        0.17050
C          1.39270        0.41560        1.18740
Cl         2.34180       -1.77600       -0.09780
H          2.61620        0.63710       -0.51630
N          1.24590        1.82180        1.36330
C         -0.22900       -1.63700        5.05480
C         -0.48590       -1.38930        3.76660
C         -0.01890       -0.13420        3.08960
O          0.79630       -0.47120        2.03010
H         -0.58320       -2.55590        5.51070
H          0.33090       -0.93350        5.66310
H         -1.04990       -2.11630        3.19020
H          0.53990        0.51360        3.80100
H         -0.90890        0.41710        2.71690
H          0.68510        2.21200        2.13240
H          1.70320        2.48320        0.71810
