25
TSA8_9_NH2_CBr3_Et
C          3.02360       -0.75880       -0.37460
C          1.62890       -1.26080       -0.03160
N          2.95340        0.70870       -0.36030
H          3.70690       -1.10340        0.43150
C          1.36200       -1.99220        1.27080
C          3.54090       -1.30580       -1.75390
C          3.11930       -2.74860       -1.96340
C          2.31120       -3.11160       -2.96530
O          0.70870       -1.03830       -0.80600
C          5.08700       -1.29950       -1.92330
H          3.07700       -0.69060       -2.55770
H          3.48490       -3.51290       -1.28690
H          2.03090       -4.15270       -3.08710
H          1.92180       -2.38190       -3.66910
H          2.35030        1.05880       -1.14070
H          3.87820        1.17350       -0.41370
Br         1.79150       -0.83390        2.76590
Br        -0.50250       -2.51360        1.44630
Br         2.43470       -3.60070        1.41580
C          5.80000        0.04180       -1.79920
H          5.30990       -1.68810       -2.94210
H          5.54920       -1.99400       -1.18610
H          5.35830        0.78860       -2.49120
H          6.87140       -0.09550       -2.05810
H          5.78760        0.40010       -0.75270
