25
TSA8_9_NH2_CBr3_Et
C          3.01750       -0.75020       -0.53360
C          1.63320       -1.39200       -0.25220
N          2.82390        0.70260       -0.58160
H          3.67550       -1.01390        0.32030
C          1.37540       -2.13720        1.07750
C          3.65130       -1.29430       -1.85250
C          3.17860       -2.73180       -2.04910
C          1.64900       -2.74950       -2.21180
O          0.91580       -1.85940       -1.37820
C          5.20240       -1.30590       -1.86810
H          3.27100       -0.71320       -2.72200
H          3.50350       -3.34600       -1.18830
H          1.26850       -3.78650       -2.10320
H          1.44940       -2.42670       -3.25550
H          2.18710        0.95300       -1.37210
H          3.71640        1.22130       -0.70410
Br         1.88160       -1.01960        2.58100
Br        -0.51690       -2.51290        1.26200
Br         2.33340       -3.81470        1.22310
C          5.87930        0.05190       -1.71780
H          5.52730       -1.73260       -2.84300
H          5.58360       -1.97020       -1.06100
H          5.51910        0.75620       -2.49650
H          6.97670       -0.07610       -1.83180
H          5.71350        0.46410       -0.70370
