16
TSA8_9_CN_H_CN
C          2.47490       -0.65180        1.50550
C          1.45430        0.43740        1.78870
C          2.21440       -1.24800        0.16620
H          3.45680       -0.13800        1.44490
H          1.30830        1.23950        1.07910
C          2.45640       -1.75720        2.63540
C          1.51580       -2.85380        2.22080
C          0.20240       -2.67730        2.31080
O          0.82920        0.48060        2.83840
C          3.76370       -2.34260        3.00130
H          2.15470       -1.32400        3.61360
H          1.90150       -3.70590        1.66080
H         -0.19610       -1.79860        2.80220
H         -0.46910       -3.39440        1.85990
N          1.94940       -1.73640       -0.85270
N          4.74350       -2.84570        3.34270
