18
TSA8_9_CN_F_CCl3
C          2.85330        1.66210       -0.30270
C          1.55510        1.33830       -1.09480
C          2.52510        1.26180        1.07290
H          3.69010        1.02060       -0.64930
F          1.85280        0.56040       -2.19700
C          3.15070        3.19360       -0.52060
C          1.96550        3.95960        0.06520
C          0.64290        3.39290       -0.45410
O          0.84160        2.49170       -1.52990
C          4.48230        3.90220       -0.12610
H          3.14330        3.33000       -1.62580
H          1.97900        3.92210        1.18090
H          0.06930        4.26970       -0.81520
H          0.05420        2.91000        0.35450
N          2.22470        0.97640        2.16250
Cl         4.37100        5.62240       -0.64490
Cl         4.83790        3.89260        1.61830
Cl         5.87430        3.22350       -1.00810
