21
TSA8_9_CF3_CCl3_OH
C          1.75840       -0.11200        0.04980
C          1.45820       -1.40100        0.37790
C          1.90740        0.48720       -1.32980
H          1.89080        0.61930        0.83580
C          1.24330       -1.83130        1.82410
C          3.62340       -4.82570       -1.90790
C          2.68730       -4.21240       -1.17090
C          2.31040       -2.78570       -1.43870
O          1.32640       -2.39290       -0.54730
O          3.97120       -6.11000       -1.67150
H          4.11920       -4.29010       -2.71210
H          2.19500       -4.75340       -0.36680
H          1.92080       -2.71470       -2.47620
H          3.22050       -2.15270       -1.33430
F          3.21120        0.91170       -1.50150
F          1.56830       -0.37000       -2.35240
F          1.07070        1.58390       -1.41690
Cl         2.43110       -3.09270        2.23770
Cl         1.38810       -0.54060        3.05820
Cl        -0.38920       -2.52750        1.97750
H          3.56680       -6.63620       -0.96680
