21
TSA8_9_CF3_CCl3_OH
C          2.80940       -1.56970       -0.32240
C          1.32800       -1.77100        0.10080
C          2.92050       -0.34540       -1.26490
H          3.42220       -1.25570        0.55050
C          1.04040       -2.24450        1.54650
C          3.42470       -2.86560       -0.92530
C          2.35680       -3.87190       -1.38200
C          1.09560       -3.16700       -1.86520
O          0.46330       -2.35760       -0.87670
O          4.24720       -3.48720        0.02860
H          4.05540       -2.57100       -1.79540
H          2.05070       -4.53490       -0.55220
H          0.37750       -3.95860       -2.16500
H          1.30330       -2.58070       -2.77880
F          4.25070       -0.10320       -1.56250
F          2.23230       -0.51450       -2.44810
F          2.41470        0.77340       -0.62520
Cl         1.66550       -3.86600        1.93040
Cl         1.74780       -1.09500        2.71170
Cl        -0.71980       -2.25050        1.82950
H          4.83590       -4.11810       -0.46440
