20
TSA8_9_CH2F_NO2_CN
C          1.59400        0.03690       -0.09250
C          1.36550        0.08110       -1.48300
C          1.67610        1.06510        0.99790
H          1.54350       -0.98400        0.36180
N          1.63430       -1.11440       -2.20290
C          1.81790        4.04230       -3.18890
C          1.79080        3.27410       -2.10100
C          0.58080        2.41310       -1.82310
O          0.86090        1.13560       -2.24760
C          3.09350        4.50600       -3.66870
H          0.92540        4.18420       -3.78820
H          2.70940        3.15840       -1.54280
H         -0.25220        2.77760       -2.42540
H          0.16560        2.44530       -0.79640
F          2.99840        0.89990        1.31420
H          1.11630        0.89340        1.94320
H          1.52510        2.11480        0.70630
O          1.32410       -1.21120       -3.35160
O          2.33710       -2.08250       -1.65000
N          4.13170        4.86660       -4.02890
