91
Coordinates from ORCA-job TSA2R_3R_XTB
  Ru         -0.19812682916582      1.17630224244086     -0.13901086252150
  H           0.04212525422172     -2.06733224483067      0.33748250117903
  N           0.94972898072189      0.29996366516005      1.35840520426829
  C           2.31500043022449      0.23638657049573      1.19091722566807
  C           0.41866176662131     -0.14083269551453      2.50688544031847
  C           3.13606911094262     -0.06542679852692      2.32193648118250
  C           1.17613061498665     -0.48097476183650      3.60726759430652
  C           2.57321295135367     -0.38624648609811      3.51827567718273
  H           4.20815680459209     -0.01893697890045      2.19879957444834
  H           0.70102661373338     -0.82288596444222      4.51365750321775
  H           3.18484190966235     -0.59078412386621      4.38592658511014
  P           1.82904492464846      1.21369991883536     -1.23400087206800
  C           1.85295322798398      0.24398345914574     -2.86513254034690
  C           2.67466325741490      2.90140908939869     -1.47817745498755
  P          -1.87014941849470      0.83830323155845      1.39276515526827
  C          -2.30648088646269      2.25179105655344      2.57003982913757
  C          -3.41686193685118     -0.08036865024610      0.80795611021843
  C           2.85894130197652      0.35986766445060     -0.08334531501794
  H           2.52044272479008     -2.11108196813051     -0.11086269617566
  H           3.93618489052133      0.36862851718708     -0.20011781393544
  C          -1.06880108170135     -0.36944877854715      2.52414454292007
  H          -1.21832746749615     -1.36049436077927      2.07836141991616
  H          -1.48213924528133     -0.37124398531666      3.53564434220540
  C          -1.21008317724231      1.86226133725520     -1.50510134706630
  O          -1.86403929692495      2.27075990894269     -2.37041008224424
  H           0.02813035784504      2.57850181614851      0.36564012994171
  C           3.18565889176399     -0.46351951708031     -3.09721160311351
  C           0.71218501339591     -0.76613492881751     -2.70394674223077
  C           1.50038178583594      1.11053621689493     -4.07355177759621
  H           3.45231107074748     -1.07882706562600     -2.24377745395357
  H           3.11957900772717     -1.09495034688654     -3.98318273281554
  H           3.98258833650303      0.25760285526105     -3.26034379491507
  H          -0.22581130338573     -0.22724698609443     -2.51365707180798
  H           0.84657772962863     -1.47609958781694     -1.88996122991619
  H           0.57805016717978     -1.34756460924874     -3.61763971295468
  H           0.59345898970327      1.68149001397389     -3.87933432556065
  H           2.30399102025750      1.79507545642719     -4.33047129767007
  H           1.32077572739270      0.47177692924918     -4.93916434049502
  C           2.91239602547877      3.41353817509451     -0.05225592474937
  C           4.02359875280013      2.82607750505584     -2.18915227357323
  C           1.73250728896734      3.87906389350412     -2.17668221691979
  H           3.67473802436507      2.82643805274473      0.45544100301881
  H           3.23642269942328      4.45297626404012     -0.07297247694016
  H           1.98633339960223      3.35048616930826      0.52450317746797
  H           3.91495926467675      2.60958280955609     -3.24880459867694
  H           4.53392100674715      3.78513732262030     -2.09874574760672
  H           4.65689448343071      2.06482794476138     -1.73733590955160
  H           1.60647265258193      3.64889204349891     -3.22937753586411
  H           0.75593721903198      3.85127335571408     -1.68998219037789
  H           2.12930923621662      4.89121870325553     -2.10017080402456
  C          -4.40395124927167      0.90969543537413      0.19290254507231
  C          -2.87766406242831     -0.97963243898893     -0.31225632013958
  C          -4.10950078200868     -0.94348819895537      1.86089011177345
  H          -3.88264300094742      1.60380504495898     -0.46612363469571
  H          -5.15088833119105      0.37433732586410     -0.39306172194808
  H          -4.92758974546010      1.47630947944444      0.95941658161141
  H          -2.10709160317049     -1.66234925018379      0.04546515076804
  H          -3.67790509053254     -1.57735231564034     -0.74852723431650
  H          -2.44147053061764     -0.36651260653858     -1.10855563651626
  H          -3.42787083924450     -1.67340050100754      2.29134946284838
  H          -4.52907991167848     -0.34529437960970      2.66405914715119
  H          -4.92731675394770     -1.48928471564956      1.38964477796107
  C          -1.00299254167492      2.59635060898839      3.29723682086714
  C          -2.71519574744954      3.45757090113704      1.72182839835014
  C          -3.39095949786872      1.93438415954810      3.59664131779694
  H          -0.18705231636675      2.69030025448236      2.57652652125191
  H          -1.10859887426004      3.54781110817705      3.81653126315876
  H          -0.73491131301986      1.83978317924159      4.03121708469786
  H          -3.68769818368959      3.31592744515411      1.26038084375724
  H          -2.76221865113527      4.35211232436052      2.34125573874497
  H          -1.97676378102151      3.61567710682461      0.93250227988019
  H          -4.36815568116336      1.84431277022223      3.12895824621628
  H          -3.17273854168952      1.01785408688649      4.14178497486108
  H          -3.44511799458649      2.74692758694323      4.32088645579857
  C           1.11052478874305     -3.42372883071171      0.03739788238149
  O           2.06618569142978     -2.79303608898845     -0.62256755880857
  C           0.14968046616791     -4.18524570536232     -0.78078017641898
  C          -1.03638839358794     -4.67563787124161     -0.23766395212863
  C          -1.96031196816814     -5.31104351408628     -1.04156585104254
  C          -1.70487679361150     -5.49445072679621     -2.39211987868400
  C          -0.51103077235796     -5.04756343791804     -2.93048082782815
  C           0.40721015202402     -4.38652590365039     -2.13542034067988
  C           1.37747442071131     -3.85311855267813      1.45078738067067
  H          -1.25125430972729     -4.51851427263963      0.80777314838416
  H          -2.89215035936971     -5.65496599153528     -0.61739907473444
  H          -2.43750134913413     -5.97893217490136     -3.02032399629343
  H          -0.30106577203811     -5.19911963077613     -3.97899346910368
  H           1.33425597688998     -4.02699789499324     -2.55412279053355
  H           2.12120655427981     -3.20805260613103      1.91574382389537
  H           1.75840467617824     -4.87721977258691      1.41834332105260
  H           0.48146974330321     -3.84914278596353      2.06027043362175
