25
TSA8_9_Et_CCl3_NO2
C          1.91780        0.09870        0.16280
C          1.45940        0.40660        1.41680
C          1.89870       -1.20110       -0.60850
H          2.35920        0.88860       -0.42910
C          1.58510        1.82950        1.95750
C          2.12600       -3.32690        3.62520
C          1.92990       -2.54840        2.54460
C          0.63140       -1.80940        2.32850
O          0.83830       -0.44590        2.29410
N          3.34140       -4.03350        3.84380
H          1.33210       -3.42970        4.36130
H          2.71970       -2.44760        1.81040
H         -0.05140       -2.01460        3.18050
H          0.07720       -2.15050        1.43540
C          3.31260       -1.56230       -1.05630
H          1.27350       -1.05440       -1.51490
H          1.48740       -2.05930       -0.07460
H          3.73580       -0.75130       -1.68790
H          3.28800       -2.49600       -1.65690
H          3.97280       -1.71730       -0.17720
Cl         2.46380        1.77800        3.50720
Cl         2.43380        3.01910        0.91830
Cl        -0.04890        2.47070        2.26320
O          4.24700       -3.96080        3.06800
O          3.46860       -4.78810        4.91370
