17
TSA8_9_Br_Br_CF3
C          1.91950       -0.72160       -2.22220
C          0.65840       -1.54210       -2.27850
Br         1.65440        0.67070       -0.88370
H          2.75720       -1.36370       -1.87260
Br         0.69470       -3.40050       -1.82960
C          2.28670       -0.10880       -3.60110
C          3.52040        0.75860       -3.46020
C          3.49950        2.06800       -3.73000
O         -0.39960       -1.02860       -2.60660
C          2.56250       -1.18390       -4.67680
H          1.43150        0.51450       -3.94820
H          4.45170        0.30620       -3.13020
H          2.59020        2.55970       -4.06180
H          4.40220        2.65950       -3.61780
F          3.60490       -2.00780       -4.28570
F          1.44000       -1.95970       -4.90210
F          2.90320       -0.57170       -5.87080
