17
TSA8_9_Br_Br_CF3
C          1.86870       -0.12500       -0.19760
C          1.42850       -0.38420       -1.43720
Br         2.24250        1.64620        0.43320
H          1.99880       -0.94140        0.50530
Br         1.02160       -2.18840       -1.92560
C          2.36830       -0.35530       -4.91050
C          2.99860        0.28870       -3.91670
C          2.26130        1.24290       -3.01810
O          1.23310        0.59790       -2.35360
C          3.09680       -1.30990       -5.80880
H          1.30660       -0.18750       -5.07240
H          4.06040        0.12680       -3.75100
H          1.83260        2.05800       -3.63800
H          2.97010        1.69700       -2.29590
F          3.62790       -2.34550       -5.06170
F          2.21900       -1.83100       -6.74140
F          4.11680       -0.64940       -6.46910
