20
TSA8_9_Cl_CCl3_CH2F
C          2.78560       -1.36570       -2.49480
C          1.47240       -1.00620       -1.71960
Cl         4.10560       -0.32930       -1.87080
H          3.09160       -2.41550       -2.29970
C          0.76660       -2.21650       -1.07980
C          2.55060       -1.16730       -4.00750
C          2.07450        0.26970       -4.29750
C          1.20840        0.80210       -3.14460
O          0.54050       -0.26600       -2.50970
C          3.73910       -1.56870       -4.89280
H          1.71040       -1.84440       -4.27720
H          2.90020        0.99560       -4.46230
H          0.47850        1.53940       -3.53740
H          1.83050        1.35660       -2.40290
Cl         0.22360       -3.38520       -2.31460
Cl         1.84790       -3.04350        0.07400
Cl        -0.65900       -1.65970       -0.16610
F          4.83940       -0.76170       -4.66510
H          3.45270       -1.48020       -5.96240
H          4.01740       -2.62540       -4.69420
