21
TSA8_9_CCl3_Br_OMe
C          1.34980       -1.39530        1.30940
C          2.57080       -2.17720        1.80370
C          1.40930       -1.00510       -0.21450
H          1.36990       -0.43440        1.87090
Br         3.98240       -2.86860        0.69440
C          0.06540       -2.18490        1.74740
C         -1.21700       -1.39500        1.58030
C         -1.43460       -0.25670        2.24800
O          2.67780       -2.39190        3.00130
O          0.00840       -3.40780        1.02860
H          0.16890       -2.38270        2.84120
H         -1.99140       -1.76490        0.91540
H         -0.69340        0.14630        2.93180
H         -2.36780        0.28030        2.11160
Cl         1.40060       -2.41210       -1.32030
Cl         0.05840        0.04990       -0.71260
Cl         2.87340       -0.03310       -0.55000
C         -0.85950       -4.33610        1.64880
H         -0.73160       -4.38670        2.75230
H         -0.61450       -5.34820        1.26570
H         -1.91590       -4.12280        1.37860
