21
TSA8_9_CCl3_Br_OMe
C          1.43960       -0.48290        0.17060
C          2.11270       -0.85150        1.28990
C          2.01020       -0.47460       -1.23110
H          0.41280       -0.15810        0.26550
Br         3.94830       -1.41710        1.24700
C         -1.06380       -2.88530        3.32820
C         -0.47370       -2.08010        2.42380
C          0.18700       -0.78740        2.83150
O          1.53670       -0.83540        2.52690
O         -1.64460       -4.07530        3.01280
H         -1.07940       -2.58720        4.37240
H         -0.44840       -2.35470        1.37440
H          0.08910       -0.63780        3.92790
H         -0.30270        0.08130        2.34460
Cl         2.46840       -2.12120       -1.73970
Cl         0.77490        0.11740       -2.37320
Cl         3.41620        0.61710       -1.35680
C         -1.66230       -4.66340        1.76430
H         -2.19790       -5.63290        1.82910
H         -0.62370       -4.85680        1.41980
H         -2.19160       -4.01190        1.03770
