20
TSA8_9_Et_F_I
C          2.39860        1.29830        0.36900
C          1.22360        1.57560       -0.54260
C          2.24010       -0.13920        0.93780
H          3.29180        1.32390       -0.29320
F          1.44630        1.83000       -1.85870
C          2.60810        2.43340        1.42430
C          1.66350        2.42470        2.60640
C          0.38050        2.78830        2.52920
O          0.07460        1.51690       -0.13740
I          4.63620        2.48880        2.15580
H          2.54980        3.42220        0.91860
H          2.05310        2.14980        3.58200
H         -0.06380        3.12480        1.60270
H         -0.23730        2.77820        3.42130
C          3.42500       -0.66490        1.74130
H          2.10370       -0.83280        0.07820
H          1.32840       -0.20000        1.57150
H          4.35340       -0.62560        1.13290
H          3.23350       -1.72110        2.02590
H          3.55150       -0.09290        2.68020
