19
TSA8_9_CBr3_NH2_Cl
C          1.90490       -0.10750       -0.02360
C          1.25080       -0.96770        0.78780
C          2.12770       -0.21720       -1.52200
H          2.32660        0.78540        0.43160
N          1.15020       -0.65510        2.17630
C         -0.16890       -5.39780        0.37880
C         -0.48190       -4.12620        0.10540
C         -0.07180       -2.99860        1.00700
O          0.69760       -2.10520        0.29170
Cl        -0.66860       -6.68840       -0.70170
H          0.39510       -5.65540        1.27030
H         -1.05000       -3.89520       -0.79120
H          0.50590       -3.38410        1.87630
H         -0.98810       -2.48830        1.37470
Br         1.34680        1.34700       -2.35350
Br         4.03410       -0.18480       -1.85260
Br         1.40840       -1.77460       -2.44320
H          0.65940       -1.27550        2.83440
H          1.57010        0.20550        2.55680
