19
TSA8_9_CBr3_NH2_Cl
C          1.76780       -1.90080       -0.03850
C          0.83000       -1.14320        0.93660
C          1.62160       -1.31440       -1.48860
H          2.82070       -1.67780        0.24400
N          1.25020       -1.25330        2.33410
C          1.53740       -3.42640        0.20360
C          0.05780       -3.79840        0.14150
C         -0.73110       -2.88140        1.08350
O         -0.53430       -1.51120        0.76770
Cl         2.49780       -4.52810       -0.81730
H          1.86210       -3.64310        1.24560
H         -0.33280       -3.73480       -0.88960
H         -0.46770       -3.08710        2.14480
H         -1.81010       -3.11900        0.98250
Br         1.97650        0.59890       -1.43050
Br         2.95140       -2.00760       -2.72380
Br        -0.11950       -1.50130       -2.33260
H          0.60850       -0.66450        2.91150
H          2.20730       -0.84460        2.42520
