19
TSA8_9_CH2F_NH2_Cl
C          2.69000       -0.25860        1.12990
C          1.33080       -0.07270        1.78340
C          2.48990       -0.61240       -0.35780
H          3.20500        0.72650        1.17810
N          0.99810        1.11290        2.34880
C          3.61930       -1.26090        1.88720
C          3.24820       -2.72650        1.77840
C          2.20200       -3.27720        2.39970
O          0.51040       -0.97750        1.77370
Cl         5.29950       -1.07770        1.29240
H          3.67290       -0.97940        2.96180
H          3.88790       -3.38510        1.19670
H          1.54740       -2.70080        3.03900
H          2.01010       -4.33980        2.28890
F          3.69280       -0.65710       -1.03700
H          1.85430        0.15930       -0.84250
H          1.98150       -1.59490       -0.46000
H          0.07060        1.24510        2.77790
H          1.66060        1.90230        2.36120
