17
TSA8_9_I_CCl3_H
C          2.77670       -1.63130       -0.86630
C          1.45370       -2.10990       -0.30520
I          2.70050        0.48840       -1.20380
H          3.56840       -1.75770       -0.09670
C          1.36640       -2.70900        1.08120
C          3.22300       -2.46350       -2.09140
C          2.23530       -2.54240       -3.23330
C          1.90040       -1.50250       -4.00180
O          0.44430       -2.00120       -0.98660
H          3.37710       -3.50400       -1.73100
H          4.20100       -2.09340       -2.46660
H          1.78790       -3.50760       -3.45350
H          1.18870       -1.63860       -4.80960
H          2.32910       -0.52110       -3.85550
Cl         2.39770       -4.15900        1.18200
Cl         1.90950       -1.52310        2.29540
Cl        -0.30550       -3.19190        1.48960
