17
TSA8_9_I_CCl3_H
C          1.87260       -0.19820        0.01080
C          1.52270       -1.49350       -0.18840
I          2.19190        1.26590       -1.49560
H          1.97450        0.20760        1.00850
C          1.23750       -2.44300        0.96410
C          3.49660       -3.44960       -3.97360
C          2.64150       -3.27620       -2.96490
C          2.27400       -1.90440       -2.48220
O          1.38090       -2.02310       -1.43600
H          3.74820       -4.45190       -4.30490
H          3.95200       -2.59860       -4.47300
H          2.20630       -4.14940       -2.48600
H          1.79720       -1.34020       -3.31150
H          3.20580       -1.38890       -2.16040
Cl         2.35740       -3.82440        0.85360
Cl         1.40570       -1.74500        2.60370
Cl        -0.42710       -3.05900        0.80930
