16
TSA8_9_Br_NH2_I
C          3.00130        0.88150        1.40020
C          1.50280        1.06590        1.50640
Br         3.37660       -0.37610       -0.04140
H          3.44110        1.85740        1.10150
N          0.94760        2.29040        1.34260
C          3.71170        0.48190        2.72220
C          3.38010       -0.89250        3.26170
C          2.21530       -1.18930        3.84460
O          0.77730        0.10380        1.70440
I          5.84190        0.58420        2.42120
H          3.50420        1.23980        3.50880
H          4.13660       -1.67070        3.22040
H          1.43540       -0.44750        3.96640
H          2.04490       -2.18840        4.23250
H         -0.07440        2.41200        1.40020
H          1.53140        3.11970        1.15990
