16
TSA8_9_Br_NH2_I
C          1.98880        0.16620        0.17390
C          1.52560        0.94500        1.18250
Br         2.56740       -1.66170        0.24470
H          2.02690        0.58930       -0.82820
N          1.11000        2.26310        0.86900
C          4.12850        0.48920        4.49980
C          3.58290        0.16360        3.32290
C          2.16740       -0.33690        3.21840
O          1.41160        0.55780        2.48560
I          6.10200        1.22820        4.60170
H          3.56560        0.39560        5.42370
H          4.16740        0.27660        2.41620
H          1.71240       -0.41180        4.23090
H          2.12620       -1.35710        2.79930
H          0.76470        2.88210        1.61760
H          1.16900        2.63580       -0.08960
