16
TSA8_9_Br_NH2_I
C          3.06030        0.72330        1.33520
C          1.51520        0.86010        1.52310
Br         3.48930       -0.95790        0.44090
H          3.43790        1.51830        0.65620
N          1.11070        2.24010        1.28030
C          3.72590        0.83200        2.71060
C          3.20470       -0.26920        3.64640
C          1.74880       -0.63850        3.31210
O          1.05050        0.48440        2.82440
I          5.86870        0.84440        2.64120
H          3.42100        1.81210        3.13870
H          3.80230       -1.20490        3.59280
H          1.25420       -1.03340        4.22340
H          1.69700       -1.46060        2.56280
H          0.08080        2.31600        1.43840
H          1.27900        2.45920        0.27220
