23
TSA8_9_Et_CH2F_F
C          2.56540       -0.71510       -0.95950
C          1.16240       -1.36510       -0.93450
C          2.39950        0.82590       -1.06550
H          3.07110       -0.87460        0.01920
C          1.13500       -2.79630       -0.38800
C          3.41890       -1.35470       -2.08850
C          2.56650       -1.89580       -3.24880
C          1.22070       -1.17600       -3.34490
O          0.42860       -1.25260       -2.15740
F          4.13930       -2.42140       -1.57620
H          4.16210       -0.63160       -2.47120
H          2.33210       -2.96790       -3.08310
H          0.65140       -1.65630       -4.16790
H          1.36690       -0.12190       -3.64670
C          3.71160        1.59340       -0.87510
H          1.72110        1.15330       -0.24660
H          1.93940        1.14180       -2.01830
H          4.16920        1.33660        0.10400
H          3.50280        2.68410       -0.88820
H          4.43850        1.38310       -1.68330
F         -0.17560       -3.21910       -0.26790
H          1.60400       -2.81600        0.61800
H          1.68000       -3.50460       -1.03920
