18
TSA8_9_OMe_Br_F
C          1.45710        0.21600        0.00900
C          1.04250       -1.01390        0.32330
O          1.61030        0.56660       -1.28940
H          1.65250        0.93830        0.79800
Br         0.81160       -1.45890        2.18200
C         -1.03340       -4.03000       -2.55520
C         -0.98030       -3.10710       -1.58970
C          0.11510       -3.09340       -0.56300
O          0.79980       -1.90090       -0.67710
F         -2.03600       -3.99830       -3.47100
H         -0.28200       -4.81080       -2.62460
H         -1.74550       -2.33690       -1.54850
H          0.82500       -3.93090       -0.72800
H         -0.34560       -3.21830        0.43860
C          1.94110        1.84570       -1.67400
H          2.00530        1.88560       -2.78150
H          2.92080        2.13620       -1.24300
H          1.15490        2.55680       -1.33830
