20
TSA8_9_H_CCl3_CHF2
C          2.11310        2.20930        0.73620
C          1.04800        2.89790       -0.08810
H          1.64680        1.29250        1.15430
H          2.96050        1.89190        0.09010
C          1.19040        3.05650       -1.58880
C          2.63960        3.08970        1.89910
C          3.61420        2.30820        2.75960
C          3.25130        1.20550        3.42380
O          0.03790        3.29600        0.47420
C          3.31200        4.37560        1.38250
H          1.78210        3.38960        2.54230
H          4.64060        2.65100        2.86250
H          2.23700        0.82330        3.37200
H          3.97620        0.67820        4.03540
Cl         2.63420        4.01640       -1.99540
Cl         1.33830        1.45180       -2.34930
Cl        -0.22890        3.87450       -2.30350
F          3.72430        5.15610        2.44890
F          4.41030        4.07310        0.59540
H          2.59230        4.97310        0.78540
