20
TSA8_9_H_CCl3_CHF2
C          1.76360        0.15950       -0.08590
C          1.53990        1.49120       -0.14880
H          2.05740       -0.34090        0.82590
H          1.64600       -0.48790       -0.94520
C          1.09990        2.17960       -1.43020
C          2.97710        4.43750        2.42810
C          3.34280        3.14880        2.36440
C          2.33030        2.06630        2.13950
O          1.68470        2.30510        0.93740
C          3.98460        5.52740        2.63740
H          1.92990        4.70910        2.32250
H          4.38980        2.87520        2.47020
H          1.58610        2.08270        2.96390
H          2.85980        1.09570        2.15890
Cl         2.31190        3.41400       -1.85630
Cl         0.89570        1.10960       -2.85150
Cl        -0.45500        3.00060       -1.14460
F          4.64260        5.34040        3.83860
F          4.90210        5.52450        1.60220
H          3.46810        6.50980        2.65720
