20
TSA8_9_F_CBr3_CF3
C          2.09730        2.17000       -0.57920
C          0.99700        2.27370       -1.61260
F          1.68630        1.25040        0.37250
H          3.02400        1.77620       -1.05080
C          1.19910        1.79490       -3.03740
C          2.40250        3.51440        0.13230
C          3.43800        3.27050        1.20920
C          3.17820        3.48200        2.50350
O         -0.09260        2.70640       -1.26610
C          2.91590        4.61730       -0.81530
H          1.46130        3.88100        0.60110
H          4.42310        2.91050        0.92460
H          2.20720        3.84000        2.83180
H          3.94500        3.29500        3.24790
Br         1.63180       -0.09490       -3.03240
Br        -0.40530        2.02670       -4.11260
Br         2.63620        2.74830       -3.92090
F          4.07850        4.21430       -1.44910
F          1.96150        4.92860       -1.76620
F          3.18190        5.76580       -0.08970
