20
TSA8_9_F_CBr3_CF3
C          2.90660        2.41040       -0.98220
C          1.51760        1.73150       -0.73090
F          3.86000        1.75580       -0.22010
H          3.21030        2.32010       -2.04610
C          0.72650        1.40460       -2.01310
C          2.83610        3.88990       -0.55900
C          2.40890        3.99050        0.92180
C          1.45390        2.84690        1.29920
O          0.69310        2.46640        0.17410
C          4.13320        4.66850       -0.83030
H          2.03290        4.36120       -1.16490
H          3.25850        3.96220        1.63870
H          0.79070        3.17170        2.12710
H          2.02290        1.96910        1.68830
Br         1.72210        0.18170       -3.14580
Br        -0.93060        0.51410       -1.54240
Br         0.28700        2.99720       -3.03320
F          5.18640        4.13720       -0.10620
F          4.44230        4.61350       -2.17790
F          3.96610        5.99440       -0.47090
