15
TSA8_9_H_CN_Br
C          2.29400       -1.44580       -0.01950
C          2.01580       -1.18430        1.43700
H          3.39420       -1.35080       -0.13560
H          1.81780       -0.68060       -0.67370
C          1.24650       -0.03730        1.85040
C          1.87600       -2.85700       -0.48600
C          0.38580       -3.01580       -0.69630
C         -0.51340       -2.95980        0.28880
O          2.54670       -1.88180        2.28650
Br         2.76030       -3.21680       -2.18040
H          2.24820       -3.62510        0.22690
H          0.01900       -3.20550       -1.70210
H         -0.22230       -2.79580        1.31870
H         -1.56640       -3.09510        0.05570
N          0.62910        0.88190        2.18310
