15
TSA8_9_H_CN_Br
C          1.62590       -0.00140        0.08550
C          1.59580       -0.67590        1.25680
H          1.66730       -0.52120       -0.86920
H          1.48570        1.07410        0.02510
C          1.34230        0.01030        2.49580
C          1.59740       -4.78070       -0.70510
C          1.51330       -3.45850       -0.55820
C          0.80320       -2.83240        0.59890
O          1.68350       -2.02880        1.29520
Br         2.52730       -5.52060       -2.20040
H          1.14420       -5.45250        0.01560
H          1.97270       -2.80790       -1.29510
H          0.35940       -3.58190        1.28780
H         -0.05140       -2.24040        0.22220
N          1.13940        0.53650        3.50530
