15
TSA8_9_H_CN_Br
C          2.25340       -1.41820       -0.14880
C          1.36210       -1.12670        1.07500
H          1.76480       -0.94200       -1.02740
H          3.27510       -0.99170       -0.06230
C          1.48840        0.10040        1.86500
C          2.25020       -2.94270       -0.36000
C          0.78520       -3.38390       -0.44590
C          0.00890       -2.91770        0.81540
O          0.84690       -2.25230        1.74640
Br         3.22630       -3.48160       -1.94420
H          2.72950       -3.45750        0.50630
H          0.33830       -2.88690       -1.33860
H         -0.41450       -3.81890        1.29880
H         -0.85690       -2.26870        0.53920
N          1.55740        1.06240        2.50450
