19
TSA8_9_NO2_CBr3_F
C          2.76540       -1.63640        0.61550
C          1.40460       -1.30150        1.30300
N          2.81060       -1.01900       -0.69820
H          3.61960       -1.26180        1.22440
C          1.47850       -0.25870        2.42950
C          2.93210       -3.16520        0.52830
C          1.67810       -3.85650       -0.02050
C          0.40340       -3.20900        0.55470
O          0.70660       -2.46640        1.72030
F          4.05990       -3.52260       -0.18920
H          3.05430       -3.53250        1.57160
H          1.61610       -3.87030       -1.12940
H         -0.34020       -3.99970        0.78250
H         -0.08120       -2.55200       -0.20710
O          3.67080       -0.23340       -0.95870
O          1.89990       -1.30060       -1.60610
Br         2.28490        1.39420        1.81000
Br        -0.31220        0.16040        3.04080
Br         2.49560       -0.93660        3.93870
