20
TSA8_9_CBr3_I_CBr3
C          1.30790       -1.33310        1.98170
C          1.04030        0.09390        1.52920
C          1.44470       -2.26880        0.72500
H          2.32120       -1.30950        2.43450
I          2.45980        1.61320        1.90950
C          0.30350       -1.65760        3.16760
C         -1.15820       -1.55390        2.76110
C         -1.95810       -0.58580        3.22260
O          0.01030        0.38890        0.94290
C          0.51580       -2.95400        4.00970
H          0.51680       -0.83750        3.89310
H         -1.58650       -2.28590        2.08900
H         -1.58930        0.17350        3.90420
H         -2.99810       -0.55040        2.91370
Br        -0.20490       -2.58200       -0.25130
Br         2.68210       -1.47920       -0.55950
Br         2.28440       -3.97380        1.10380
Br        -0.49780       -2.80130        5.66520
Br        -0.13940       -4.59290        3.18470
Br         2.36620       -3.17770        4.56230
