21
TSA8_9_NO2_CBr3_NH2
C          2.20260       -0.44420        0.15220
C          1.80450        0.10020        1.35160
N          1.71980       -1.58910       -0.55750
H          3.00520        0.05710       -0.36870
C          2.48190        1.36890        1.87300
C          1.80550       -2.66750        3.73840
C          0.98280       -2.67670        2.67990
C          0.09570       -1.49810        2.38090
O          0.83660       -0.34640        2.21620
N          2.63380       -3.77870        4.03120
H          1.84140       -1.79930        4.39080
H          0.94270       -3.54930        2.03530
H         -0.56620       -1.34820        3.25970
H         -0.59780       -1.65640        1.53800
O          2.24510       -1.87740       -1.58970
O          0.67730       -2.28310       -0.18270
Br         3.88400        2.19000        0.78710
Br         1.12800        2.73110        2.13880
Br         3.28530        0.97520        3.59350
H          2.62560       -4.62190        3.43860
H          3.25260       -3.75060        4.85410
