21
TSA8_9_Br_CHF2_OMe
C          1.97800       -0.17570       -0.20310
C          1.48310       -0.78910       -1.30910
Br         2.58180        1.63630       -0.00520
H          2.04030       -0.73930        0.72300
C          1.03580       -2.22240       -1.19990
C          4.02480        0.71420       -4.41640
C          3.41110        0.69880       -3.21800
C          1.92310        0.90770       -3.08600
O          1.33790       -0.21970       -2.54440
O          5.36110        0.50610       -4.57670
H          3.43780        0.89460       -5.31160
H          3.98080        0.52020       -2.31430
H          1.47260        1.07240       -4.08800
H          1.68160        1.80880       -2.49420
F         -0.30280       -2.31450       -1.53330
F          1.77320       -2.99570       -2.07710
H          1.17110       -2.63260       -0.17600
C          6.26070        0.21400       -3.57160
H          7.27040        0.08950       -4.01360
H          5.97620       -0.73480       -3.06780
H          6.29570        1.04250       -2.83270
