23
TSA8_9_Me_CCl3_CH2F
C          2.34740       -1.73060       -0.40490
C          1.36430       -1.32580        0.68320
C          2.49710       -0.57210       -1.40730
H          3.34080       -1.88150        0.07250
C          1.81130       -1.20950        2.12560
C          1.93290       -3.09590       -1.04060
C          0.61740       -3.01780       -1.78930
C         -0.45530       -3.72160       -1.41470
O          0.20230       -1.08610        0.38560
C          3.01250       -3.68260       -1.96730
H          1.84000       -3.81680       -0.19610
H          0.53870       -2.37660       -2.66180
H         -0.42420       -4.37770       -0.55080
H         -1.37930       -3.64100       -1.97820
H          1.53900       -0.35870       -1.92550
H          3.28010       -0.78470       -2.15950
H          2.80980        0.34860       -0.86980
Cl         2.43440       -2.77780        2.69910
Cl         3.09960        0.01380        2.26800
Cl         0.46860       -0.72350        3.20040
F          3.18340       -2.92840       -3.11420
H          2.71350       -4.70730       -2.27670
H          3.98050       -3.75920       -1.42770
