23
TSA8_9_Me_CCl3_CH2F
C          2.31810       -1.90040       -0.49290
C          1.14850       -1.60260        0.50920
C          2.30950       -0.82760       -1.59260
H          3.30010       -1.82520        0.02400
C          1.60460       -1.24130        1.93360
C          2.16600       -3.35160       -1.02050
C          0.75690       -3.58960       -1.59490
C         -0.30340       -2.84880       -0.76390
O          0.17110       -2.63900        0.54870
C          3.26440       -3.82450       -1.98420
H          2.24770       -3.99790       -0.11710
H          0.63980       -3.29080       -2.65920
H         -1.24140       -3.44050       -0.74850
H         -0.57110       -1.87380       -1.23670
H          1.37060       -0.85540       -2.18250
H          3.17100       -0.95420       -2.27740
H          2.40480        0.17990       -1.13500
Cl         2.44770       -2.61390        2.70250
Cl         2.68760        0.17660        1.91680
Cl         0.18510       -0.82190        2.92610
F          3.20920       -3.15530       -3.19320
H          3.13360       -4.90900       -2.18660
H          4.26400       -3.67560       -1.52390
