25
TSA8_9_NO2_Et_CF3
C          2.67410       -0.82530        1.15430
C          1.42670       -0.07790        1.59390
N          2.38190       -1.61590       -0.03150
H          3.44900       -0.07010        0.88780
C          1.41020        1.42360        1.70170
C          3.27760       -1.67450        2.31600
C          2.29030       -2.66030        2.90960
C          1.88530       -2.56440        4.18110
O          0.40650       -0.69820        1.85700
C          4.56080       -2.41800        1.89130
H          3.57390       -0.94800        3.10700
H          1.89830       -3.46750        2.30070
H          2.25000       -1.77350        4.83030
H          1.17800       -3.28200        4.58260
O          2.95040       -1.38330       -1.05620
O          1.47420       -2.56850       -0.00310
C          2.35810        1.90520        2.79720
H          0.38480        1.76660        1.96230
H          1.69070        1.87120        0.72460
H          2.06120        1.46670        3.77480
H          2.30560        3.01120        2.87460
H          3.40630        1.61680        2.57460
F          4.28750       -3.37000        0.92390
F          5.48920       -1.52270        1.39040
F          5.11560       -3.05360        2.98870
