25
TSA8_9_NO2_Et_CF3
C          2.80960       -0.88530        1.03020
C          1.52290       -0.19200        1.53190
N          2.46690       -1.75270       -0.08910
H          3.52030       -0.11230        0.65700
C          1.55850        1.30060        1.91910
C          3.49130       -1.65070        2.19390
C          2.46770       -2.52400        2.92480
C          1.29370       -1.64830        3.37090
O          0.63890       -1.02020        2.27840
C          4.71970       -2.47010        1.75450
H          3.85040       -0.89940        2.92920
H          2.10450       -3.35910        2.29280
H          1.62860       -0.91300        4.12360
H          0.56020       -2.30060        3.88840
O          2.95640       -1.55700       -1.16000
O          1.57520       -2.71060        0.04070
C          2.29580        1.65150        3.20720
H          0.51320        1.66860        1.99440
H          2.04530        1.84970        1.08490
H          1.79040        1.22260        4.09180
H          2.28580        2.75480        3.33500
H          3.35220        1.32140        3.16110
F          4.36250       -3.47510        0.87260
F          5.64480       -1.64300        1.14300
F          5.31220       -3.04930        2.86270
