18
TSA8_9_F_CN_CH2F
C          1.66010        0.04130       -0.01230
C          1.52360        1.36220       -0.28940
F          1.66030       -0.47170        1.24730
H          1.65340       -0.67260       -0.83170
C          1.41180        1.77920       -1.65700
C          2.97290        2.91170        3.55470
C          2.51780        2.02670        2.66030
C          1.19390        2.21670        1.98710
O          1.38410        2.35390        0.63250
C          4.28210        2.71620        4.25400
H          2.38610        3.79400        3.79090
H          3.11180        1.15480        2.40660
H          0.67260        3.12290        2.37570
H          0.50250        1.37390        2.19190
N          1.31810        2.14760       -2.74830
F          4.24270        1.55520        5.00440
H          4.46400        3.57320        4.93470
H          5.11460        2.65720        3.52200
