18
TSA8_9_F_CN_CH2F
C          2.84590        1.22360        1.09680
C          1.51290        1.56520        0.34680
F          2.72400       -0.06530        1.57400
H          3.73310        1.25960        0.41150
C          1.58770        1.65870       -1.11970
C          3.01030        2.22750        2.26730
C          1.72180        2.20410        3.10010
C          0.49430        2.41340        2.19930
O          0.88080        2.71690        0.87090
C          4.22940        2.08790        3.19600
H          3.11500        3.23570        1.81070
H          1.61620        1.23050        3.63350
H         -0.08850        3.25750        2.62250
H         -0.17500        1.52450        2.20630
N          1.64360        1.73240       -2.26890
F          4.20680        0.90690        3.91640
H          4.19690        2.93680        3.92090
H          5.18260        2.17190        2.63640
