16
TSA8_9_F_NH2_I
C          2.99500        0.34220       -1.33520
C          1.44610        0.46010       -1.49050
F          3.38500        0.80980       -0.09050
H          3.31090       -0.72180       -1.40000
N          0.96680       -0.57460       -2.40180
C          3.64590        1.18650       -2.42910
C          3.22170        2.65740       -2.27730
C          1.84960        2.77830       -1.58940
O          0.99550        1.72760       -1.98330
I          5.78000        1.00270       -2.45400
H          3.27210        0.81140       -3.40640
H          3.93750        3.24860       -1.66540
H          1.39640        3.75710       -1.84830
H          1.95280        2.77260       -0.48010
H         -0.06770       -0.46910       -2.50690
H          1.13250       -1.50780       -1.96010
