16
TSA8_9_NH2_Br_F
C          2.95070       -0.58420        0.96660
C          1.51210       -0.43950        1.41220
N          3.03720       -0.60800       -0.49590
H          3.48530        0.32220        1.32640
Br         0.98770        1.07680        2.45430
C          3.71810       -1.78460        1.57890
C          3.25910       -3.15860        1.14390
C          2.11260       -3.71640        1.54100
O          0.65760       -1.23740        1.06390
F          5.04460       -1.65450        1.20170
H          3.68960       -1.72780        2.68950
H          3.91650       -3.74330        0.50630
H          1.43510       -3.20780        2.21530
H          1.85520       -4.71540        1.20420
H          2.61400        0.26590       -0.88530
H          2.50980       -1.42760       -0.87620
