16
TSA8_9_NH2_Br_F
C          1.73460       -0.00710        0.17670
C          1.38200       -0.34560        1.44290
N          2.26460       -0.86510       -0.82390
H          1.58210        1.02780       -0.11480
Br         0.65160        1.05640        2.52220
C          4.42900       -3.16350        2.54320
C          3.61360       -2.51640        1.70370
C          2.12070       -2.73130        1.72040
O          1.47150       -1.56200        2.05970
F          5.76750       -2.93320        2.50120
H          4.04070       -3.87150        3.26810
H          4.04590       -1.81270        1.00070
H          1.86200       -3.48740        2.49250
H          1.73360       -3.14310        0.77100
H          2.47900       -0.46490       -1.74860
H          2.43270       -1.86420       -0.70540
