16
TSA8_9_I_OH_OH
C          2.94330        0.87860        1.42620
C          1.44040        0.99760        1.53790
I          3.40750       -0.41880       -0.22800
H          3.33650        1.88310        1.15770
O          0.83440        2.19790        1.40780
C          3.67780        0.47050        2.73700
C          3.38130       -0.92040        3.27150
C          2.21740       -1.26230        3.83160
O          0.74990        0.00330        1.68770
O          5.06610        0.61220        2.55090
H          3.40430        1.19640        3.53370
H          4.16770       -1.66980        3.24530
H          1.40770       -0.55160        3.94080
H          2.07800       -2.26790        4.21510
H          1.33420        3.01410        1.26680
H          5.37180       -0.09030        1.91980
