25
TSA8_9_CHF2_OMe_OMe
C          2.62120        0.42230        0.80130
C          1.92720        1.00720       -0.41950
C          1.62060       -0.32610        1.72190
H          3.33570       -0.34840        0.43530
O          2.67460        1.60970       -1.38230
C          3.45390        1.51180        1.54230
C          2.58910        2.71290        1.91340
C          2.82550        3.92530        1.39900
O          0.71120        0.93510       -0.53260
O          4.07890        0.90930        2.66920
H          4.25020        1.83640        0.83170
H          1.77020        2.59850        2.61240
H          3.63710        4.09120        0.69600
H          2.20150        4.76670        1.67980
F          2.27920       -0.95400        2.76420
F          0.65700        0.51990        2.23890
H          1.10620       -1.11610        1.13380
C          2.17100        2.21320       -2.52060
H          2.58170        1.70410       -3.41650
H          2.48440        3.27710       -2.53620
H          1.06170        2.17500       -2.57180
C          4.70980        1.85150        3.51160
H          5.48170        1.32620        4.11020
H          3.96700        2.27580        4.22190
H          5.22940        2.65590        2.94530
