25
TSA8_9_CHF2_OMe_OMe
C          1.61520       -0.33530       -0.17050
C          1.78200        0.95680       -0.50940
C          1.46380       -0.86050        1.23880
H          1.59270       -1.07470       -0.96630
O          1.88960        1.25220       -1.83550
C          4.65120        2.61320        2.13680
C          3.32740        2.79530        1.96890
C          2.71140        2.92920        0.60620
O          1.79800        1.90560        0.46480
O          5.23700        2.44500        3.35330
H          5.29770        2.58590        1.26420
H          2.65890        2.82830        2.82320
H          3.50640        2.87420       -0.16300
H          2.18920        3.90550        0.53090
F          2.49040       -1.74740        1.50150
F          1.48020        0.13290        2.20150
H          0.49860       -1.40080        1.31670
C          1.90830        2.50530       -2.41130
H          1.87420        2.38840       -3.51360
H          2.84310        3.04780       -2.17960
H          1.02110        3.09050       -2.09040
C          4.57560        2.35100        4.56150
H          5.31910        2.19850        5.37020
H          3.88350        1.48110        4.55030
H          4.01110        3.28460        4.76760
