22
TSA8_9_CHF2_Me_NH2
C          2.03350        0.16310        0.10700
C          1.64400        1.39480       -0.34780
C          1.79300       -0.62130        1.37970
H          2.64520       -0.42250       -0.57520
C          2.08670        1.79800       -1.73150
C          1.76590        3.96100        3.13450
C          1.62010        2.79680        2.48410
C          0.44910        2.54830        1.56610
O          0.88310        2.34720        0.27410
N          2.87520        4.18860        3.98590
H          1.03080        4.75210        3.01360
H          2.36580        2.01900        2.61340
H         -0.20600        3.44530        1.55250
H         -0.21370        1.73340        1.89960
F          3.01350       -0.91780        1.95650
F          1.00030       -0.03400        2.32710
H          1.30370       -1.57720        1.09670
H          2.68930        2.72810       -1.66330
H          1.19220        1.99590       -2.35820
H          2.70210        1.02730       -2.24320
H          3.59740        3.46710        4.12550
H          2.96810        5.09190        4.47230
