22
TSA8_9_CHF2_Me_NH2
C          2.38390        1.66350        1.05120
C          1.26060        1.77440       -0.03160
C          2.35870        0.25330        1.67920
H          3.38660        1.77600        0.57950
C          1.83090        1.94210       -1.43720
C          2.21790        2.82540        2.06030
C          0.78550        2.88490        2.61480
C         -0.24040        2.59160        1.50470
O          0.33180        2.82040        0.23300
N          3.20370        2.78480        3.13830
H          2.36670        3.76670        1.48140
H          0.59820        2.20350        3.47300
H         -1.13070        3.23730        1.64990
H         -0.61830        1.54460        1.57140
F          3.38910        0.10440        2.58960
F          1.15880       -0.01530        2.31070
H          2.50270       -0.50220        0.87760
H          2.39820        2.89540       -1.50670
H          1.00380        1.95970       -2.17680
H          2.50620        1.09470       -1.67850
H          4.16200        2.84050        2.72240
H          3.07840        3.62710        3.74580
