26
TSA8_9_CH2F_CBr3_Et
C          2.87030       -1.12810       -1.59810
C          1.59730       -1.97250       -1.50990
C          2.60360        0.22980       -0.92000
H          3.66310       -1.61880       -0.99710
C          1.51790       -3.22740       -0.65650
C          3.41150       -0.91410       -3.05630
C          2.38980       -0.22730       -3.94510
C          2.59750        0.99260       -4.45180
O          0.58890       -1.58500       -2.08130
C          3.87530       -2.21160       -3.75400
H          4.30910       -0.25780       -2.98760
H          1.46310       -0.73330       -4.19260
H          1.84550        1.45030       -5.08640
H          3.50790        1.54420       -4.23970
F          3.75960        0.99030       -0.88520
H          2.26430        0.07290        0.12560
H          1.81430        0.79800       -1.45660
Br         1.94570       -2.80700        1.18770
Br        -0.27000       -3.99670       -0.67160
Br         2.72250       -4.60940       -1.27070
C          5.12770       -2.82110       -3.11680
H          4.15150       -1.97110       -4.80530
H          3.04850       -2.95250       -3.78190
H          5.96630       -2.09360       -3.15240
H          5.42550       -3.72760       -3.68480
H          4.96280       -3.11210       -2.06370
