22
TSA8_9_F_OMe_OMe
C          2.59680        0.04730        1.12060
C          2.09230        1.35550        0.56810
F          1.51300       -0.74070        1.46530
H          3.16320       -0.47170        0.31660
O          2.41480        1.70930       -0.70210
C          3.55580        0.25050        2.31750
C          2.89360        0.96790        3.49020
C          3.31210        2.16320        3.91940
O          1.39280        2.08410        1.25910
O          4.19940       -0.97330        2.67000
H          4.37420        0.90570        1.94260
H          2.04940        0.50500        3.99270
H          4.14780        2.67070        3.44770
H          2.81210        2.64460        4.75310
C          2.02510        2.89520       -1.28770
H          2.42100        2.93830       -2.32280
H          2.43150        3.75550       -0.71330
H          0.91650        2.95910       -1.32370
C          3.48190       -1.76400        3.59720
H          3.91260       -2.78600        3.58720
H          2.41130       -1.87540        3.33370
H          3.60500       -1.36500        4.62680
