17
TSA8_9_F_I_CCl3
C          3.29280        1.22650       -1.04620
C          1.75300        1.10320       -1.23550
F          3.60660        1.06870        0.29360
H          3.79190        0.40390       -1.59870
I          1.32540        0.39470       -3.21250
C          3.72990        2.62090       -1.53800
C          2.99670        3.70150       -0.70590
C          1.65410        3.18720       -0.15590
O          1.02880        2.32590       -1.08060
C          5.26430        2.84560       -1.58490
H          3.35970        2.71080       -2.58370
H          3.57940        4.06560        0.16690
H          0.99580        4.05260        0.06540
H          1.79260        2.65360        0.81180
Cl         5.62770        4.46680       -2.24000
Cl         6.03090        2.71360        0.02470
Cl         6.03960        1.65610       -2.66750
