25
TSA8_9_NO2_CF3_Et
C          2.75980       -0.77210        0.78300
C          1.93490        0.17030        1.64940
N          1.90490       -1.40450       -0.21160
H          3.48290       -0.15980        0.20980
C          2.19770        1.64980        1.66690
C          3.59910       -1.82010        1.61410
C          2.87310       -2.39440        2.82860
C          1.82740       -3.22250        2.77490
O          1.01770       -0.27450        2.32550
C          4.93730       -1.21180        2.12340
H          3.90300       -2.66450        0.95610
H          3.24010       -2.13950        3.82100
H          1.38500       -3.58180        3.69880
H          1.41210       -3.57090        1.84470
O          2.10850       -1.21140       -1.37400
O          0.85260       -2.10630        0.13860
F          1.28810        2.29060        2.49380
F          3.47380        1.89290        2.13520
F          2.07330        2.15960        0.38810
C          5.95080       -0.91680        1.00760
H          5.43660       -1.96310        2.77700
H          4.75330       -0.30090        2.73160
H          6.15870       -1.84280        0.42850
H          6.90490       -0.57200        1.45870
H          5.61220       -0.12640        0.31210
