16
TSA8_9_NO2_H_Cl
C          1.74790       -0.19710        1.78050
C          1.33460        0.88750        0.81500
N          1.46270       -1.50660        1.20250
H          2.85000       -0.11850        1.91410
H          2.08430        1.55870        0.40860
C          1.11290        0.03870        3.18070
C         -0.40030        0.01000        3.17900
C         -1.12550        1.07750        3.52830
O          0.17020        1.01220        0.46870
Cl         1.72270       -1.15370        4.36350
H          1.46350        1.03410        3.53530
H         -0.92590       -0.89400        2.89240
H         -0.65220        2.00850        3.82460
H         -2.20920        1.02330        3.51730
O          1.96120       -1.80770        0.15980
O          0.70680       -2.38790        1.82220
