19
TSA8_9_NO2_F_CBr3
C          2.86800        0.09450        1.61660
C          1.48070        0.68550        1.64870
N          3.03450       -0.69690        0.40420
H          3.55570        0.96430        1.57580
F          1.33120        2.03750        1.61900
C          3.18020       -0.70280        2.93120
C          2.41250       -2.01220        3.00030
C          1.47330       -2.24760        3.92080
O          0.49140       -0.02520        1.70620
C          4.69880       -0.95890        3.16990
H          2.86260       -0.04610        3.77400
H          2.63700       -2.79980        2.28900
H          1.20980       -1.50100        4.66170
H          0.96030       -3.20440        3.93170
O          3.83760       -0.36470       -0.41540
O          2.23520       -1.70950        0.14130
Br         4.97080       -1.84030        4.88350
Br         5.53490       -2.06860        1.80990
Br         5.68900        0.71260        3.27940
