27
TSA8_9_CH2F_Et_OMe
C          2.99430        0.80850       -0.98870
C          1.55980        0.65040       -1.54120
C          2.92120        1.13570        0.51800
H          3.53350       -0.16540       -1.02170
C          1.47630       -0.10270       -2.88080
C          3.78860        1.86440       -1.81150
C          2.84890        2.89810       -2.47390
C          1.54470        3.06510       -1.69550
O          0.79260        1.85910       -1.54810
O          4.52030        1.19360       -2.82540
H          4.48180        2.36600       -1.09670
H          2.56130        2.56260       -3.49150
H          0.92090        3.79150       -2.25680
H          1.74110        3.52430       -0.70820
F          4.19390        1.18290        1.06010
H          2.35910        0.33210        1.04100
H          2.41270        2.09020        0.73740
C          0.02670       -0.38380       -3.26340
H          2.00360       -1.07520       -2.77630
H          1.96080        0.46190       -3.69980
H         -0.47140       -0.98070       -2.46980
H         -0.00280       -0.95790       -4.21340
H         -0.52920        0.56660       -3.40970
C          5.60540        1.98400       -3.26410
H          6.17830        1.40250       -4.01520
H          6.30890        2.21470       -2.43390
H          5.25150        2.91010       -3.76790
