19
TSA8_9_OMe_CN_Cl
C          1.54490       -1.33190       -0.38040
C          2.37150       -1.33080        0.87290
O          2.19820       -0.50900       -1.33260
H          0.55510       -0.91700       -0.06260
C          1.78570       -0.91680        2.12350
C          1.36660       -2.78560       -0.92070
C         -0.00830       -3.00730       -1.49750
C         -1.07440       -3.04720       -0.68620
O          3.52170       -1.77180        0.86370
Cl         2.62930       -3.20470       -2.12080
H          1.45630       -3.52600       -0.09630
H         -0.14550       -3.18020       -2.55980
H         -0.95890       -2.91740        0.38830
H         -2.06600       -3.23630       -1.08080
C          1.30200        0.22740       -2.13340
H          1.71190        0.26070       -3.16550
H          1.23320        1.26780       -1.75160
H          0.28940       -0.22430       -2.21560
N          1.30410       -0.56850        3.12570
