19
TSA8_9_OMe_CN_Cl
C          1.61260       -0.04020        0.07140
C          1.58350       -1.04440        0.96150
O          1.73030       -0.27440       -1.26560
H          1.46210        0.98670        0.40850
C          1.25050       -0.77270        2.34280
C          0.97590       -4.72960       -1.76480
C          1.07120       -3.44550       -1.41840
C          0.59690       -2.95320       -0.09000
O          1.64710       -2.34330        0.57860
Cl         1.54330       -5.25490       -3.33880
H          0.54430       -5.45940       -1.08630
H          1.49420       -2.72950       -2.11510
H          0.20060       -3.77800        0.54230
H         -0.24170       -2.25300       -0.26120
C          1.11530        0.52380       -2.21630
H          1.48990        0.27560       -3.22880
H          1.27530        1.60340       -2.01050
H          0.02090        0.32830       -2.24100
N          0.98740       -0.60120        3.44980
