22
TSA8_9_CBr3_NO2_Me
C          2.67220        0.18490       -1.29330
C          1.20590       -0.22290       -1.52170
C          2.82940        1.12980       -0.03790
H          3.20210       -0.74500       -0.98840
N          0.87640       -1.31830       -2.26460
C          3.28850        0.63560       -2.67590
C          2.63260        1.87200       -3.25290
C          1.90960        1.83570       -4.37690
O          0.30610        0.43560       -1.01760
C          4.80710        0.83310       -2.67670
H          3.12470       -0.20620       -3.37970
H          2.76100        2.82680       -2.76040
H          1.75410        0.90820       -4.91770
H          1.46440        2.74740       -4.76190
Br         2.05670        0.25920        1.52580
Br         4.67240        1.42990        0.49520
Br         1.96050        2.86670       -0.17740
O          1.72050       -2.02160       -2.73180
O         -0.38880       -1.63940       -2.43660
H          5.31420       -0.06830       -2.27120
H          5.10710        1.73280       -2.10850
H          5.16140        0.98610       -3.71930
