22
TSA8_9_CBr3_NO2_Me
C          1.77970       -0.02390       -0.07760
C          1.45340       -0.04610       -1.39480
C          1.91550        1.18170        0.83700
H          1.99510       -0.96980        0.41230
N          1.39060       -1.30280       -2.09150
C          3.90860        0.76590       -4.07190
C          3.14540        1.54960       -3.30070
C          1.64300        1.47030       -3.30710
O          1.20620        1.12860       -2.04050
C          5.40220        0.86340       -4.01480
H          3.45290        0.04060       -4.74080
H          3.61540        2.26130       -2.62570
H          1.26030        0.77800       -4.07850
H          1.24780        2.47580       -3.56120
Br         0.79520        0.89240        2.38910
Br         3.75390        1.26480        1.43400
Br         1.45920        2.93760        0.12740
O          1.65840       -2.32370       -1.53080
O          0.92630       -1.37020       -3.31910
H          5.75540        0.64940       -2.98350
H          5.72670        1.88400       -4.30860
H          5.85560        0.12600       -4.70910
