22
TSA8_9_CBr3_NO2_Me
C          2.78180        0.23750       -1.28140
C          1.27490       -0.01490       -1.56390
C          2.92930        1.22430       -0.06650
H          3.23240       -0.70910       -0.90960
N          0.98910       -1.30560       -2.17440
C          3.46100        0.56230       -2.65030
C          2.73150        1.69410       -3.37180
C          1.24760        1.34290       -3.49320
O          0.64310        1.07380       -2.23340
C          4.96350        0.84040       -2.60270
H          3.34060       -0.34780       -3.28190
H          2.87200        2.66210       -2.85860
H          1.12080        0.49540       -4.19600
H          0.72650        2.20530       -3.95830
Br         1.98110        0.47830        1.46210
Br         4.75930        1.39650        0.56400
Br         2.20490        3.01310       -0.30600
O          1.37380       -2.30180       -1.64150
O          0.13360       -1.40690       -3.16910
H          5.49430        0.00170       -2.10430
H          5.18000        1.79500       -2.08440
H          5.35790        0.93420       -3.63730
