20
TSA8_9_CCl3_I_CBr3
C          1.40740       -1.96210       -1.55140
C          1.03550       -1.69020       -0.07320
C          1.47030       -0.59720       -2.32530
H          2.45720       -2.32750       -1.55300
I          1.78350       -3.12160        1.35950
C          0.48080       -3.14300       -2.03490
C         -0.99520       -2.84150       -1.72170
C         -1.15050       -2.46220       -0.24630
O         -0.33240       -1.35870        0.10010
C          0.64260       -3.72370       -3.46890
H          0.76080       -3.99260       -1.37210
H         -1.39510       -2.03900       -2.36770
H         -0.94430       -3.33630        0.40720
H         -2.21100       -2.18900       -0.06730
Cl         2.26530       -0.74130       -3.91220
Cl        -0.09940        0.22500       -2.53800
Cl         2.51930        0.54340       -1.42860
Br        -0.32350       -5.40930       -3.57470
Br        -0.10580       -2.62560       -4.89290
Br         2.49630       -4.15340       -3.86060
