20
TSA8_9_Cl_H_Et
C          0.83970        1.72290       -0.57580
C          1.39600        0.37410       -0.94800
Cl         2.12850        2.64330        0.25700
H          0.00990        1.56100        0.14380
H          0.95300       -0.52500       -0.53260
C          0.31490        2.48290       -1.82330
C         -0.76060        1.66920       -2.51710
C         -0.62100        1.23390       -3.77300
O          2.34170        0.27880       -1.71460
C         -0.21730        3.90370       -1.49910
H          1.17490        2.62390       -2.51730
H         -1.67240        1.42240       -1.98190
H          0.27330        1.45120       -4.34860
H         -1.41150        0.65100       -4.23460
C         -1.41010        3.94870       -0.53750
H         -0.52010        4.39300       -2.45090
H          0.60150        4.51550       -1.06510
H         -2.28230        3.40650       -0.95590
H         -1.71060        5.00600       -0.38000
H         -1.14460        3.51880        0.44930
