20
TSA8_9_Cl_H_Et
C          2.34780       -0.31240       -0.22370
C          1.35200       -0.25190       -1.11060
Cl         3.39790        1.06680        0.07390
H          2.51360       -1.22700        0.33620
H          0.72160       -1.12520       -1.25430
C         -0.15320        3.48660       -2.17850
C         -0.72890        2.27000       -2.20110
C          0.04400        1.06490       -2.65050
O          1.12850        0.88370       -1.81420
C         -0.82970        4.76510       -1.73320
H          0.88040        3.57770       -2.50240
H         -1.75940        2.12590       -1.89660
H          0.40160        1.22040       -3.69050
H         -0.62820        0.17760       -2.64180
C         -2.27030        4.61030       -1.24440
H         -0.81760        5.47940       -2.58400
H         -0.22940        5.19800       -0.90500
H         -2.91740        4.21410       -2.05650
H         -2.66350        5.60170       -0.93580
H         -2.30860        3.93010       -0.36720
