21
TSA8_9_CF3_OMe_Br
C          1.97160       -1.84700       -0.07920
C          0.61720       -2.16660        0.51180
C          1.85140       -0.65540       -1.05910
H          2.64320       -1.53870        0.75310
O          0.44410       -2.06580        1.85380
C          2.56770       -3.11890       -0.74180
C          3.97520       -2.89200       -1.22870
C          4.31690       -3.04660       -2.51090
O         -0.29800       -2.54040       -0.21080
Br         2.64800       -4.58860        0.53410
H          1.90820       -3.43890       -1.57940
H          4.73680       -2.59900       -0.51140
H          3.58520       -3.34100       -3.25670
H          5.34310       -2.87800       -2.82040
F          3.09510       -0.27660       -1.52990
F          1.04790       -0.98610       -2.13720
F          1.29500        0.43080       -0.40520
C         -0.70110       -2.45840        2.51140
H         -0.58560       -2.25400        3.59540
H         -0.86180       -3.54910        2.37010
H         -1.57910       -1.89540        2.12980
