23
TSA8_9_CCl3_Me_CHF2
C          1.14510       -1.56250        1.17010
C          2.48230       -1.49370        1.89380
C          0.99190       -0.30500        0.24400
H          1.16790       -2.45250        0.50150
C          3.54200       -2.52230        1.62560
C         -0.01750       -1.76080        2.21280
C         -1.36410       -1.89140        1.53700
C         -2.36200       -1.03180        1.76980
O          2.70440       -0.60130        2.69960
C          0.16700       -3.02160        3.08970
H         -0.03310       -0.88400        2.89820
H         -1.52960       -2.71160        0.84360
H         -2.23990       -0.19930        2.45560
H         -3.31470       -1.15960        1.26660
Cl         2.42670       -0.12460       -0.80970
Cl        -0.38900       -0.43160       -0.88220
Cl         0.80600        1.20920        1.17710
H          4.44740       -2.32190        2.23730
H          3.82450       -2.49660        0.55260
H          3.15710       -3.53250        1.87590
F          0.24310       -4.16080        2.30610
F          1.29830       -2.93620        3.88040
H         -0.70070       -3.12250        3.77760
