26
TSA8_9_NO2_Et_OMe
C          2.70440        0.79550        1.09220
C          1.54020        1.75430        0.89620
N          2.22410       -0.57970        1.05680
H          3.41220        0.91040        0.23830
C          1.46890        2.69490       -0.27660
C          3.55170        1.12230        2.36320
C          2.77080        1.37740        3.64120
C          2.10020        0.44860        4.32500
O          0.61320        1.74470        1.69280
O          4.28910        2.30260        2.07640
H          4.23600        0.25180        2.52070
H          2.78260        2.38580        4.04810
H          1.58020        0.73000        5.23570
H          2.07530       -0.58550        4.01930
O          2.62800       -1.32490        0.21410
O          1.26990       -0.98830        1.86150
C          2.56180        3.75560       -0.20950
H          0.48800        3.21960       -0.26580
H          1.54440        2.11880       -1.22320
H          2.46850        4.33500        0.73520
H          2.45100        4.45460       -1.06450
H          3.56840        3.29370       -0.26060
C          5.60430        2.21000        2.58510
H          6.14150        3.15110        2.34940
H          6.16970        1.38490        2.09600
H          5.59900        2.09710        3.69190
