26
TSA8_9_NO2_Et_OMe
C          1.85750        0.16970        0.08350
C          1.38640        1.30260        0.66950
N          1.90860       -1.11760        0.69360
H          2.18120        0.22690       -0.95340
C          1.23190        2.54940       -0.17840
C          4.24890        1.62350        3.13530
C          2.98350        2.06030        3.15120
C          1.81650        1.11100        3.07900
O          1.00990        1.38450        1.97910
O          5.26920        2.51050        3.21190
H          4.45500        0.55780        3.06440
H          2.79000        3.12510        3.22830
H          1.21000        1.24320        3.99850
H          2.18590        0.07300        3.07910
O          2.43010       -2.01230        0.10020
O          1.13980       -1.40870        1.72030
C          2.04110        3.72080        0.36200
H          0.15870        2.83580       -0.19370
H          1.54610        2.36770       -1.22990
H          1.69110        3.99310        1.37840
H          1.89700        4.60320       -0.29690
H          3.12140        3.46530        0.38850
C          6.59800        2.13940        3.22330
H          7.11450        2.60210        2.35740
H          6.72720        1.03580        3.16720
H          7.06980        2.50350        4.15930
