26
TSA8_9_NO2_Et_OMe
C          2.87400        0.50450        1.03420
C          1.56780        1.34050        0.91130
N          2.53090       -0.89570        1.28520
H          3.42700        0.50450        0.06930
C          1.56960        2.59910        0.02460
C          3.79130        1.04760        2.17010
C          2.97020        1.72660        3.28510
C          1.53080        1.21140        3.30910
O          0.81560        1.51650        2.11470
O          4.72530        1.96810        1.63310
H          4.32550        0.16250        2.58820
H          2.90900        2.82040        3.11320
H          1.01390        1.71270        4.15360
H          1.50330        0.12140        3.51600
O          3.39450       -1.71870        1.33170
O          1.27530       -1.29060        1.35390
C          2.21020        3.84000        0.63560
H          0.50790        2.84750       -0.19010
H          2.06000        2.36370       -0.94370
H          1.69970        4.11460        1.58190
H          2.10430        4.68810       -0.07330
H          3.28840        3.69060        0.81300
C          5.88260        2.03300        2.44080
H          6.56950        2.78890        2.00990
H          6.42730        1.06240        2.44410
H          5.63950        2.36500        3.47480
