23
TSA8_9_CF3_CH2F_CCl3
C          2.39570       -1.97100       -0.52650
C          1.24620       -1.68740        0.49760
C          2.45770       -0.79710       -1.52750
H          3.36860       -1.97680        0.01420
C          1.75590       -1.24170        1.86580
C          2.19050       -3.40510       -1.12500
C          0.73420       -3.61740       -1.59390
C         -0.26500       -2.95840       -0.63120
O          0.33520       -2.76670        0.63220
C          3.22270       -3.94100       -2.15790
H          2.30620       -4.06520       -0.23460
H          0.51610       -3.27780       -2.62860
H         -1.16600       -3.59900       -0.53930
H         -0.62940       -1.98630       -1.04310
F          3.58060       -0.88920       -2.32510
F          1.32810       -0.75990       -2.32430
F          2.54720        0.39900       -0.83670
F          0.68640       -0.90720        2.67580
H          2.41350       -0.35410        1.75800
H          2.33050       -2.06430        2.34220
Cl         2.97720       -5.69680       -2.38010
Cl         3.07170       -3.20120       -3.77860
Cl         4.89350       -3.72060       -1.57020
