21
TSA8_9_Me_NH2_NH2
C          3.15690        0.72070        0.67290
C          2.08070       -0.16360        1.27900
C          3.38850        0.31700       -0.79390
H          2.78650        1.77010        0.66550
N          0.91850        0.37030        1.72340
C          4.44680        0.70550        1.54450
C          5.07910       -0.66960        1.64850
C          5.20260       -1.30270        2.81940
O          2.25560       -1.37100        1.36200
N          5.42910        1.66640        1.03590
H          4.14190        1.05130        2.55930
H          5.44760       -1.15640        0.75080
H          4.84980       -0.85260        3.74240
H          5.66110       -2.28500        2.85920
H          3.76410       -0.72430       -0.87340
H          4.10910        1.00070       -1.28690
H          2.43250        0.38590       -1.35630
H          0.18980       -0.23430        2.13110
H          0.74180        1.38350        1.66370
H          5.83500        1.33540        0.13100
H          6.21520        1.74780        1.72130
