21
TSA8_9_Me_NH2_NH2
C          3.22110        0.89740        0.51340
C          2.15550       -0.00680        1.16720
C          3.45170        0.41270       -0.92930
H          2.83190        1.93680        0.44050
N          1.48580        0.59900        2.32060
C          4.49540        0.88540        1.39250
C          4.93450       -0.56040        1.66080
C          3.76050       -1.33890        2.26740
O          2.61740       -1.33110        1.42260
N          5.58300        1.66970        0.80430
H          4.24020        1.34640        2.37240
H          5.26740       -1.05440        0.72380
H          3.51480       -0.96450        3.28270
H          4.08630       -2.39090        2.40460
H          3.82040       -0.63290       -0.96580
H          4.17060        1.07070       -1.45850
H          2.49370        0.45450       -1.49070
H          2.13470        0.73420        3.12550
H          0.70050       -0.02440        2.61450
H          5.95350        1.20450       -0.05560
H          6.36820        1.73100        1.49310
