18
TSA8_9_OH_CH2F_F
C          1.81520        1.51490       -1.27950
C          0.70570        0.92660       -2.11450
O          1.38690        1.55920        0.05830
H          2.71970        0.86570       -1.38590
C          0.93350       -0.33930       -2.88960
C          2.18810        2.92670       -1.77820
C          3.36670        3.51390       -1.03830
C          3.33540        3.81410        0.26450
O         -0.38350        1.48070       -2.15580
F          2.52290        2.84800       -3.12050
H          1.31800        3.61220       -1.67950
H          4.27860        3.71860       -1.59210
H          2.44830        3.65170        0.86560
H          4.21220        4.24120        0.74060
H          2.00340        0.99070        0.59060
F         -0.20760       -0.70480       -3.58250
H          1.20790       -1.15670       -2.19070
H          1.76120       -0.18680       -3.61350
