14
TSA8_9_Cl_H_Cl
C          1.52790       -0.14520        2.09080
C          1.23010        0.61300        0.82490
Cl         0.95850       -1.83490        1.92200
H          2.63260       -0.17390        2.21010
H          2.04760        1.02320        0.24100
C          0.93450        0.54900        3.33650
C         -0.57470        0.59520        3.31130
C         -1.24740        1.75000        3.31180
O          0.08280        0.76550        0.43640
Cl         1.45110       -0.29940        4.82040
H          1.35370        1.57870        3.38840
H         -1.13320       -0.33580        3.29370
H         -0.72910        2.70360        3.32780
H         -2.33240        1.74430        3.29340
