23
TSA8_9_I_CBr3_Et
C          2.95250       -0.13060       -2.40750
C          1.67970       -0.95630       -2.54580
I          2.86520        0.91040       -0.52690
H          3.82350       -0.81000       -2.31340
C          1.69710       -2.47460       -2.51480
C          3.22620        0.89140       -3.55610
C          2.08890        1.88400       -3.70820
C          2.24980        3.18990       -3.47440
O          0.60410       -0.37960       -2.60600
C          3.49650        0.23780       -4.92880
H          4.14750        1.45230       -3.27840
H          1.11150        1.53800       -4.02890
H          1.41400        3.86940       -3.59940
H          3.20750        3.59210       -3.15720
Br         2.49580       -3.09390       -0.85970
Br        -0.09870       -3.21860       -2.60380
Br         2.68640       -3.21980       -3.99990
C          4.80900       -0.54930       -4.97200
H          3.59310        1.04190       -5.69170
H          2.64280       -0.41020       -5.22290
H          5.66330        0.11990       -4.73440
H          4.95830       -0.96020       -5.99260
H          4.81470       -1.39190       -4.25640
