23
TSA8_9_I_CBr3_Et
C          3.26400       -0.20640       -2.74400
C          1.78260       -0.65580       -2.74890
I          3.92520        0.50750       -0.80830
H          3.96010       -1.03620       -2.94930
C          1.44300       -2.02170       -2.11550
C          3.42140        0.91900       -3.80870
C          2.09400        1.70630       -3.97880
C          1.25870        1.68060       -2.69190
O          0.91810        0.36360       -2.24890
C          3.83800        0.39630       -5.20790
H          4.22230        1.60990       -3.46900
H          1.44970        1.21270       -4.74210
H          0.31770        2.23460       -2.89190
H          1.79350        2.22120       -1.88530
Br         1.60110       -2.05690       -0.18190
Br        -0.39670       -2.45050       -2.54620
Br         2.53600       -3.44090       -2.86410
C          5.22680       -0.24810       -5.24960
H          3.86770        1.26220       -5.90670
H          3.08660       -0.33080       -5.58710
H          5.99490        0.46920       -4.89130
H          5.46620       -0.52750       -6.29740
H          5.27890       -1.17340       -4.64460
