28
TSA8_9_NH2_Et_Et
C          1.56680       -0.07490       -0.17200
C          1.33730        0.37990       -1.43160
N          1.84220        0.75470        0.94780
H          1.49970       -1.14230        0.01800
C          0.94690       -0.60500       -2.50910
C          4.02860        4.06430       -2.53740
C          3.06060        3.14180       -2.64140
C          2.36660        2.61420       -1.42180
O          1.41450        1.68850       -1.80730
C          4.75560        4.58900       -3.74510
H          4.30110        4.45050       -1.55890
H          2.77870        2.76130       -3.61900
H          1.86870        3.44960       -0.88500
H          3.14730        2.15480       -0.77870
H          1.78730        1.77940        0.91320
H          2.00500        0.31590        1.86500
C          1.94910       -0.57950       -3.65950
H         -0.05760       -0.33160       -2.89680
H          0.89060       -1.64370       -2.11530
H          1.99050        0.43120       -4.11740
H          1.63700       -1.30430       -4.44070
H          2.96090       -0.85770       -3.29520
C          5.54610        3.48480       -4.44610
H          5.46930        5.37550       -3.41880
H          4.02900        5.04360       -4.45240
H          6.28710        3.04250       -3.74570
H          6.08910        3.91020       -5.31590
H          4.87070        2.68310       -4.81240
