19
TSA8_9_OH_OMe_I
C          3.14930       -0.58280        0.74070
C          2.16460       -0.14040        1.79270
O          2.51270       -0.56780       -0.51340
H          3.97000        0.17460        0.76590
O          2.45200        0.95520        2.54270
C          3.81990       -1.95840        0.99260
C          2.90790       -3.16090        0.87740
C          1.98860       -3.47740        1.79290
O          1.09650       -0.72010        1.92660
I          5.40670       -2.19740       -0.44060
H          4.32060       -1.96780        1.98540
H          3.02860       -3.83280        0.03230
H          1.84660       -2.88240        2.68640
H          1.38020       -4.36640        1.66030
H          3.14250       -0.16200       -1.16460
C          1.62060        1.46170        3.51880
H          2.09320        2.35870        3.96920
H          1.46020        0.70360        4.31490
H          0.64460        1.75570        3.07680
