19
TSA8_9_OH_OMe_I
C          1.82810       -0.04180       -0.01630
C          1.83910       -0.01230        1.33210
O          1.80750       -1.18790       -0.72340
H          1.82460        0.90020       -0.55960
O          1.84110        1.20760        1.92470
C          4.46230       -3.27690        2.20820
C          3.62230       -2.54040        1.47340
C          2.15830       -2.43300        1.81230
O          1.84410       -1.12510        2.12910
I          6.51210       -3.37510        1.71770
H          4.11260       -3.82980        3.07510
H          4.00780       -1.99450        0.61840
H          1.92830       -3.05890        2.70100
H          1.52230       -2.81390        0.98830
H          1.78680       -1.17000       -1.68980
C          1.92640        1.38590        3.28940
H          1.91600        2.47090        3.51830
H          2.87600        0.95090        3.67060
H          1.06430        0.90170        3.79580
