22
TSA8_9_CH2F_NO2_CF3
C          1.99980       -1.84880       -1.23580
C          0.67210       -2.46980       -0.82250
C          1.82910       -0.31440       -1.20890
H          2.78320       -2.10880       -0.49230
N          0.56060       -3.23640        0.30000
C          2.46460       -2.37260       -2.63500
C          3.81730       -1.78810       -2.98950
C          4.00260       -1.01980       -4.06720
O         -0.31490       -2.27180       -1.52080
C          2.58710       -3.91450       -2.69140
H          1.71040       -2.06900       -3.39660
H          4.66730       -2.00130       -2.34680
H          3.18240       -0.78110       -4.73650
H          4.98910       -0.62240       -4.28370
F          3.02490        0.33840       -1.44600
H          1.47110        0.00250       -0.20560
H          1.08220        0.01000       -1.96560
O         -0.49440       -3.71170        0.59820
O          1.60450       -3.46700        1.06760
F          3.47790       -4.36790       -1.73330
F          1.36150       -4.52160       -2.48610
F          3.04200       -4.30060       -3.94110
