16
TSA8_9_NO2_H_Br
C          1.91460        0.01420        0.13240
C          1.25760        0.49470        1.20040
N          2.03160       -1.37580       -0.16260
H          2.37760        0.73010       -0.54210
H          1.21560        1.57230        1.34190
C         -0.30320       -1.17640        5.24260
C         -0.60940       -0.99500        3.95360
C         -0.06620        0.15980        3.16400
O          0.65090       -0.32320        2.09240
Br        -1.02070       -2.66270        6.20700
H          0.35420       -0.48740        5.76430
H         -1.27060       -1.69890        3.45690
H          0.58970        0.80200        3.79360
H         -0.91890        0.77170        2.79780
O          2.63080       -1.71790       -1.13580
O          1.48620       -2.29110        0.61070
