19
TSA8_9_CH2F_NO2_I
C          2.59020        1.26640        0.09670
C          1.53350        1.23300       -1.00430
C          2.26140        0.17580        1.13700
H          3.56590        1.00560       -0.36220
N          1.86690        0.98880       -2.30510
C          2.79160        2.68400        0.72240
C          1.70460        3.16310        1.66300
C          0.49240        3.55620        1.26410
O          0.35750        1.39330       -0.70980
I          4.66370        2.76470        1.79020
H          2.93860        3.43320       -0.08570
H          1.92900        3.23210        2.72340
H          0.20760        3.56710        0.22120
H         -0.22710        3.90390        1.99860
F          3.24780        0.06780        2.09800
H          2.17360       -0.80850        0.62870
H          1.29430        0.39330        1.63850
O          1.01650        0.95130       -3.14410
O          3.11910        0.79380       -2.66010
