19
TSA8_9_CH2F_NO2_I
C          1.90680        0.06830       -0.07220
C          1.55370        1.06900       -0.93620
C          1.85540       -0.00680        1.43160
H          2.28160       -0.85530       -0.50160
N          1.68730        0.82960       -2.34150
C          2.76540        4.57470        1.28510
C          2.34270        3.31550        1.13170
C          0.96920        2.99690        0.59400
O          1.06370        2.30370       -0.59510
I          4.70120        4.96790        2.02870
H          2.12940        5.41680        1.02970
H          3.01520        2.50820        1.39610
H          0.42810        3.94330        0.38000
H          0.32820        2.46240        1.31830
F          3.12820       -0.25090        1.91220
H          1.20400       -0.86020        1.71280
H          1.46300        0.86590        1.95530
O          1.38240        1.68350       -3.11780
O          2.14260       -0.31740       -2.80360
