19
TSA8_9_NO2_I_CCl3
C          1.96960        0.13270       -0.15410
C          1.47710        0.83330       -1.21580
N          1.89630        0.40100        1.24850
H          2.49320       -0.78330       -0.41740
I          1.81170       -0.04410       -3.11210
C          2.07900        4.99170       -0.19490
C          1.82940        3.69370        0.04860
C          0.54350        3.03730       -0.38980
O          0.79730        2.01860       -1.28260
C          3.36370        5.65050        0.23690
H          1.33670        5.58930       -0.71750
H          2.57310        3.10020        0.57030
H         -0.09390        3.78120       -0.91380
H         -0.07930        2.68750        0.44970
O          2.43470       -0.35500        1.99840
O          1.18280        1.37390        1.75520
Cl         3.35410        7.36790       -0.23890
Cl         3.54660        5.55930        2.00850
Cl         4.75970        4.85930       -0.54080
