23
TSA8_9_CF3_CH2F_CH2F
C          2.77600       -1.27660       -0.33020
C          1.39570       -1.50750        0.25970
C          2.90740        0.20100       -0.78110
H          3.51380       -1.42510        0.49050
C          1.25220       -1.87470        1.70920
C          3.08850       -2.36580       -1.41020
C          2.18950       -2.27560       -2.62750
C          1.34130       -3.25500       -2.95700
O          0.39790       -1.39180       -0.43820
C          4.55610       -2.35110       -1.86580
H          2.93630       -3.34910       -0.90770
H          2.23720       -1.39810       -3.26370
H          1.25990       -4.15540       -2.35660
H          0.71840       -3.15620       -3.83980
F          4.18840        0.47920       -1.21510
F          2.01240        0.50730       -1.78960
F          2.64270        1.03000        0.29550
F         -0.08010       -2.03960        2.04600
H          1.68620       -1.07110        2.33950
H          1.79350       -2.82350        1.90590
F          4.80460       -3.43460       -2.69110
H          5.22730       -2.42690       -0.98430
H          4.80180       -1.42930       -2.42930
