19
TSA8_9_NO2_Br_Me
C          2.85360        1.31760       -0.90140
C          1.45430        0.92040       -1.30960
N          3.14580        0.81920        0.43470
H          3.55130        0.83190       -1.62200
Br         1.18560       -0.22370       -2.81880
C          3.08310        2.85200       -1.03370
C          2.19350        3.67600       -0.12470
C          1.29390        4.53860       -0.60730
O          0.48210        1.31430       -0.68440
C          4.54880        3.20990       -0.75820
H          2.87600        3.12000       -2.09510
H          2.28740        3.58050        0.95170
H          1.16180        4.67690       -1.67580
H          0.67800        5.11590        0.07470
O          4.02820        0.03090        0.59470
O          2.41440        1.18110        1.46740
H          5.21670        2.65280       -1.44940
H          4.82890        2.96150        0.28800
H          4.71280        4.29690       -0.92120
