20
TSA8_9_CHF2_CCl3_Cl
C          2.79610       -1.34170       -0.28650
C          1.34790       -1.62130        0.20310
C          2.77880       -0.12730       -1.24050
H          3.42470       -0.98740        0.55820
C          1.13840       -2.04360        1.67770
C          3.45440       -2.59270       -0.93510
C          2.44670       -3.70360       -1.23900
C          1.11730       -3.11100       -1.69120
O          0.48050       -2.28730       -0.71770
Cl         4.75420       -3.26160        0.09380
H          3.94430       -2.29610       -1.88720
H          2.24130       -4.32650       -0.35040
H          0.43970       -3.96190       -1.91210
H          1.24740       -2.55530       -2.64000
F          4.07110        0.20880       -1.60600
F          2.03760       -0.35910       -2.38170
H          2.33730        0.74560       -0.71270
Cl         1.88090       -3.60100        2.11230
Cl         1.80650       -0.79650        2.76270
Cl        -0.60730       -2.14920        2.02330
