29
TSA8_9_Et_Me_Et
C          2.50640       -1.13900       -1.12390
C          1.39100       -1.66790       -0.23580
C          2.49950        0.41070       -0.93220
H          3.45600       -1.55530       -0.72040
C          1.70830       -2.56290        0.92480
C          2.29490       -1.72170       -2.57130
C          1.33790       -0.89120       -3.40110
C          0.14940       -1.35820       -3.79670
O          0.22690       -1.36780       -0.46190
C          3.57270       -2.10490       -3.36940
H          1.84780       -2.73390       -2.42130
H          1.62020        0.11550       -3.69020
H         -0.17910       -2.35900       -3.53400
H         -0.50750       -0.73200       -4.39150
C          3.61760        1.20830       -1.58270
H          2.58290        0.60980        0.16030
H          1.52820        0.83350       -1.27070
H          4.60540        0.84860       -1.22700
H          3.51740        2.27500       -1.29000
H          3.53870        1.17450       -2.68280
H          2.21470       -3.48060        0.55920
H          0.78080       -2.85480        1.46220
H          2.37920       -2.03100        1.63130
C          4.51350       -0.99740       -3.81960
H          3.23790       -2.63470       -4.28950
H          4.16480       -2.83170       -2.77070
H          3.97890       -0.25000       -4.44120
H          5.32150       -1.44180       -4.43860
H          5.00860       -0.53290       -2.95110
