29
TSA8_9_Et_Me_Et
C          2.47340       -1.14910       -1.23150
C          1.12570       -1.59540       -0.54930
C          2.43770        0.41160       -1.19590
H          3.33600       -1.46390       -0.60250
C          1.36640       -2.60090        0.57410
C          2.54660       -1.92690       -2.58220
C          1.36430       -1.53630       -3.47660
C          0.08100       -1.37730       -2.63710
O          0.15730       -2.14400       -1.45150
C          3.87980       -2.15490       -3.34830
H          2.33380       -2.97990       -2.28010
H          1.52860       -0.61870       -4.08010
H         -0.78490       -1.70590       -3.24710
H         -0.13290       -0.31770       -2.38580
C          3.64170        1.17020       -1.71780
H          2.34660        0.69100       -0.12190
H          1.55100        0.82440       -1.71120
H          4.57890        0.79080       -1.25830
H          3.53310        2.24420       -1.45530
H          3.65460        1.13800       -2.81960
H          1.81340       -3.53430        0.17190
H          0.40220       -2.84330        1.06820
H          2.04720       -2.16380        1.33500
C          4.58440       -0.98300       -4.01260
H          3.64580       -2.87570       -4.16410
H          4.60990       -2.65280       -2.67290
H          3.89260       -0.41320       -4.66700
H          5.41230       -1.37460       -4.64100
H          5.07610       -0.34920       -3.25830
