18
TSA8_9_CF3_H_CN
C          2.18190        1.72700       -0.52070
C          1.42460        0.93680       -1.57270
C          2.13740        1.02130        0.88710
H          3.23450        1.66920       -0.87340
H          1.39630       -0.14470       -1.53210
C          1.78980        3.24430       -0.54210
C          0.69480        3.58220        0.43950
C         -0.54790        3.13000        0.28310
O          1.04280        1.47240       -2.60330
C          2.95540        4.11630       -0.31880
H          1.45920        3.56530       -1.55600
H          0.93280        4.18260        1.31770
H         -0.81330        2.54020       -0.58750
H         -1.30020        3.36040        1.02680
F          3.24280        0.20540        1.04560
F          2.14400        1.91910        1.94090
F          1.00240        0.23230        1.01210
N          3.85750        4.83460       -0.21690
