18
TSA8_9_CF3_F_CN
C          2.17400        1.75980        0.46570
C          0.92310        1.64190       -0.46610
C          2.21050        0.62170        1.52820
H          3.06180        1.57340       -0.18110
F          1.33930        1.80810       -1.77710
C          2.19600        3.21130        1.00950
C          0.89890        3.52450        1.77950
C         -0.29790        2.78140        1.15660
O         -0.09920        2.60790       -0.22540
C          3.38580        3.61220        1.77150
H          2.18510        3.86830        0.11330
H          0.93080        3.28030        2.86440
H         -1.22470        3.36190        1.33810
H         -0.47190        1.78930        1.62900
F          3.51550        0.39940        1.92890
F          1.46130        0.89720        2.65450
F          1.73190       -0.55340        0.97040
N          4.30700        3.97030        2.37390
