14
TSA8_9_Cl_H_I
C          2.82330        1.35170        0.80620
C          1.39090        1.77020        0.59550
Cl         2.99690       -0.38380        0.40510
H          3.39440        1.92700        0.04720
H          0.92430        1.56940       -0.36340
C          3.43090        1.66650        2.20100
C          2.99850        0.73410        3.32060
C          1.75860        0.64720        3.81210
O          0.76220        2.39100        1.43520
I          5.57390        1.52520        2.03940
H          3.22780        2.72340        2.47770
H          3.75030        0.09600        3.77580
H          0.94100        1.24880        3.45350
H          1.55260       -0.04680        4.62070
