14
TSA8_9_Cl_H_I
C          3.00410        0.98310        0.86090
C          1.49000        1.31720        0.75630
Cl         3.25320       -0.77900        1.07690
H          3.49990        1.24930       -0.09760
H          1.40310        2.21580        0.10890
C          3.59080        1.79050        2.02150
C          2.87700        1.43760        3.33650
C          1.42490        0.99130        3.08470
O          0.86510        1.68260        1.99050
I          5.71750        1.59940        2.21430
H          3.38710        2.86210        1.80420
H          3.37870        0.61850        3.89590
H          0.82600        1.17440        4.00060
H          1.36110       -0.10400        2.90000
