20
TSA8_9_CH2F_CHF2_H
C          2.57470       -1.06430       -1.05550
C          1.31800       -1.84400       -0.72600
C          2.25890        0.43670       -1.12940
H          3.29850       -1.19180       -0.21930
C          1.22680       -2.62910        0.55160
C          3.27480       -1.63610       -2.31750
C          2.46000       -1.63930       -3.59080
C          2.13260       -0.52930       -4.25840
O          0.36890       -1.83020       -1.49710
H          3.52270       -2.69580       -2.08780
H          4.23560       -1.10870       -2.50060
H          2.15170       -2.59720       -4.00000
H          1.55660       -0.60260       -5.17490
H          2.44290        0.45180       -3.92020
F          3.40900        1.15860       -1.39540
H          1.85090        0.77620       -0.15310
H          1.49350        0.65870       -1.89870
F         -0.00650       -3.24820        0.65890
F          2.21810       -3.59260        0.57560
H          1.36060       -1.94500        1.41540
