26
TSA8_9_CF3_CBr3_Et
C          1.72270       -0.10950       -0.04570
C          1.45580       -1.11490       -0.92810
C          1.83440        1.37450       -0.31210
H          1.85110       -0.34690        1.00150
C          1.26440       -2.55490       -0.46540
C          3.80150       -0.87250       -4.92160
C          2.85580       -1.25400       -4.05170
C          2.26730       -0.27820       -3.07830
O          1.34670       -0.92780       -2.27590
C          4.43340       -1.84260       -5.88170
H          4.13250        0.16300       -4.93660
H          2.52010       -2.28740       -4.03670
H          1.76540        0.53800       -3.64030
H          3.10490        0.13400       -2.47350
F          3.13770        1.77980       -0.09540
F          1.43870        1.74970       -1.57710
F          1.01290        2.03520        0.58190
Br         1.39480       -2.89460        1.45190
Br        -0.49150       -3.15560       -1.02290
Br         2.58790       -3.68130       -1.32270
C          5.18870       -2.94750       -5.14280
H          5.15590       -1.29200       -6.52130
H          3.65190       -2.28830       -6.53360
H          5.98020       -2.50580       -4.49970
H          5.66600       -3.62850       -5.87790
H          4.49980       -3.54470       -4.50900
