26
TSA8_9_CF3_CBr3_Et
C          2.92900       -1.21070       -2.20100
C          1.40940       -1.54610       -2.09100
C          3.44150       -0.21500       -1.13080
H          3.48980       -2.15330       -2.05630
C          0.86940       -2.39210       -0.92130
C          3.21560       -0.67780       -3.65470
C          1.90550       -0.49080       -4.44590
C          0.86880        0.22950       -3.56330
O          0.60120       -0.40240       -2.31160
C          4.14070       -1.61100       -4.47460
H          3.69790        0.32470       -3.60520
H          1.47910       -1.47840       -4.72930
H         -0.07830        0.31300       -4.13450
H          1.24010        1.25660       -3.36030
F          4.78010        0.06020       -1.34770
F          2.73520        0.97410       -1.17730
F          3.33510       -0.75670        0.13290
Br         0.57940       -1.37150        0.70480
Br        -0.85670       -3.08770       -1.45620
Br         1.99490       -3.92850       -0.53760
C          5.55270       -1.74240       -3.90030
H          4.24150       -1.20180       -5.50420
H          3.68110       -2.62180       -4.54780
H          6.04330       -0.74780       -3.85780
H          6.15240       -2.40620       -4.55890
H          5.54790       -2.18950       -2.88640
