19
TSA8_9_Me_NH2_Cl
C          1.63570        0.04940       -1.77700
C          1.03680       -1.03950       -0.90490
C          1.43140        1.42090       -1.11040
H          2.73320       -0.11910       -1.84860
N          1.82010       -2.01210       -0.38110
C          1.07710       -0.02310       -3.22360
C         -0.41040        0.22930       -3.30560
C         -1.25910       -0.69610       -3.76390
O         -0.16210       -1.04140       -0.66510
Cl         1.90960        1.14700       -4.28710
H          1.31400       -1.03480       -3.62240
H         -0.80670        1.18900       -2.98920
H         -0.90750       -1.66930       -4.09280
H         -2.32160       -0.48120       -3.81090
H          0.35380        1.65740       -0.99070
H          1.91050        2.22470       -1.70720
H          1.90040        1.42180       -0.10310
H          1.41010       -2.74890        0.21180
H          2.83340       -2.03490       -0.56520
