19
TSA8_9_Me_NH2_Cl
C          1.63170        0.12400       -1.84260
C          0.87100       -1.01040       -1.12100
C          1.31730        1.46210       -1.14970
H          2.72780       -0.03710       -1.74460
N          1.35860       -2.33960       -1.48870
C          1.24810        0.09700       -3.33970
C         -0.27230        0.13520       -3.49920
C         -0.88550       -1.00370       -2.67520
O         -0.53730       -0.90240       -1.30130
Cl         2.01330        1.41560       -4.27090
H          1.60840       -0.85920       -3.77860
H         -0.68220        1.10890       -3.15780
H         -0.59260       -1.99430       -3.08900
H         -1.98970       -0.94270       -2.76550
H          0.23410        1.69850       -1.16930
H          1.87440        2.29300       -1.62990
H          1.63650        1.41310       -0.08670
H          0.82040       -3.04580       -0.93740
H          2.35820       -2.41510       -1.19300
