17
TSA8_9_F_F_CBr3
C          1.91430        0.11230       -0.18140
C          1.36910        1.11310       -0.89580
F          2.48300        0.29070        1.03850
H          1.89050       -0.89490       -0.58470
F          0.80480        0.80110       -2.09200
C          4.14500        4.20700        0.22130
C          3.46550        3.05240        0.31520
C          1.97760        3.02240        0.56050
O          1.32510        2.41890       -0.49920
C          5.62960        4.23650       -0.03510
H          3.61510        5.14950        0.32850
H          3.99750        2.11260        0.20650
H          1.58770        4.05860        0.65170
H          1.73970        2.50670        1.51340
Br         6.25140        6.07100       -0.10670
Br         6.58780        3.32510        1.38410
Br         6.04200        3.39040       -1.73160
