17
TSA8_9_F_F_CBr3
C          3.21960        1.53250       -0.54310
C          1.68780        1.52260       -0.80770
F          3.49570        0.83650        0.62240
H          3.72490        0.99900       -1.37600
F          1.47930        1.64730       -2.16990
C          3.67220        2.99970       -0.41910
C          2.92690        3.65440        0.76920
C          1.56900        2.97970        1.03490
O          0.95970        2.57530       -0.17070
C          5.20750        3.21390       -0.34970
H          3.32070        3.50930       -1.34430
H          3.49120        3.61970        1.72480
H          0.90990        3.69080        1.57530
H          1.68060        2.09740        1.70500
Br         5.61650        5.11230       -0.27500
Br         6.03600        2.36590        1.19360
Br         6.07240        2.52160       -1.94620
