23
TSA8_9_NH2_OMe_Me
C          2.27460        0.70860       -1.98880
C          1.03430        0.04290       -2.57910
N          2.08000        0.92550       -0.55180
H          3.16660        0.05920       -2.11030
O          1.06350       -1.16220       -3.20860
C          2.57410        2.05320       -2.70040
C          3.75930        2.73440       -2.05300
C          3.65790        3.94350       -1.49170
O         -0.03930        0.61830       -2.48860
C          2.88730        1.83680       -4.18840
H          1.67650        2.70850       -2.62440
H          4.72110        2.22880       -2.04350
H          2.71500        4.48170       -1.48130
H          4.52760        4.40480       -1.03600
H          1.91710        0.00770       -0.07650
H          1.25480        1.54620       -0.38250
C          2.18910       -1.91700       -3.45570
H          1.89240       -2.84100       -3.99260
H          2.67840       -2.20570       -2.50180
H          2.89610       -1.34900       -4.09740
H          2.02800        1.36520       -4.70960
H          3.77860        1.18270       -4.31040
H          3.09180        2.81150       -4.68060
