23
TSA8_9_NH2_OMe_Me
C          1.83990        0.02800        0.01610
C          1.73560        0.19920       -1.31670
N          1.69000        1.08560        0.95110
H          2.02100       -0.97230        0.40080
O          1.82280       -0.90480       -2.10220
C          3.06940        2.24700       -4.24040
C          3.43360        2.28810       -2.94980
C          2.41230        2.46890       -1.86480
O          1.50760        1.42060       -1.87310
C          4.06860        2.05590       -5.34110
H          2.02060        2.34800       -4.51110
H          4.47940        2.19390       -2.67120
H          1.86750        3.41970       -2.04620
H          2.93070        2.54690       -0.88780
H          1.78370        0.88540        1.95690
H          1.42810        2.03760        0.66600
C          1.92500       -0.87300       -3.47540
H          1.88830       -1.90980       -3.86660
H          2.90070       -0.43250       -3.76570
H          1.09080       -0.28990       -3.91980
H          3.81190        1.13700       -5.90860
H          5.10230        1.95270       -4.94720
H          4.03130        2.92720       -6.02630
