15
TSA8_9_OH_F_I
C          1.38940       -1.91990       -0.17680
C          1.19640       -0.81270        0.82810
O          0.88370       -1.52300       -1.42620
H          2.48150       -2.12910       -0.26260
F          2.27680       -0.26410        1.44230
C          0.72230       -3.23520        0.27290
C         -0.77770       -3.11140        0.38090
C         -1.42200       -3.31630        1.53380
O          0.08080       -0.38880        1.08620
I          1.16690       -4.79890       -1.12350
H          1.16390       -3.53810        1.24840
H         -1.35150       -2.84870       -0.50310
H         -0.88450       -3.57970        2.43950
H         -2.50190       -3.21830        1.57590
H          1.56880       -0.93510       -1.84010
