15
TSA8_9_OH_F_I
C          1.85190       -0.02680        0.01810
C          1.18120       -0.86330        0.81290
O          1.90820       -0.24140       -1.31240
H          2.35540        0.83560        0.44580
F          1.13750       -0.62010        2.15190
C         -0.47540       -5.18060        0.33000
C         -0.75730       -3.88460        0.16040
C         -0.18220       -2.82350        1.05160
O          0.54870       -1.94040        0.28780
I         -1.31150       -6.63330       -0.95250
H          0.18520       -5.51170        1.12550
H         -1.42180       -3.58370       -0.64390
H          0.47150       -3.26920        1.83440
H         -1.01920       -2.28600        1.54820
H          2.39160        0.36650       -1.88850
