16
TSA8_9_I_NH2_Br
C          3.00370        1.37230        0.87590
C          1.51080        1.62000        0.89790
I          3.36870       -0.56670        0.01170
H          3.45740        2.11560        0.18510
N          0.97890        2.67020        0.22810
C          3.72440        1.56200        2.23900
C          3.38020        0.55330        3.31400
C          2.21660        0.54690        3.97010
O          0.76840        0.85240        1.49000
Br         5.64870        1.48750        1.93710
H          3.53110        2.58520        2.62880
H          4.12790       -0.17820        3.60720
H          1.44470        1.27890        3.76720
H          2.03960       -0.19030        4.74680
H         -0.03970        2.82930        0.23110
H          1.57690        3.32770       -0.29340
