24
TSA8_9_CN_Et_Me
C          1.78300       -0.08340       -0.03250
C          1.60970       -0.70500       -1.23640
C          1.82080        1.34540        0.21090
H          1.81710       -0.67620        0.86440
C          1.64090       -2.21600       -1.22850
C          3.59320        1.04790       -4.23780
C          3.03000        1.52200       -3.11760
C          1.59640        1.22860       -2.81380
O          1.49130       -0.10070       -2.46370
C          5.03610        1.28910       -4.53750
H          2.99560        0.48720       -4.95410
H          3.60680        2.12020       -2.41910
H          0.97410        1.43270       -3.71190
H          1.18080        1.89440       -2.04430
N          1.85360        2.48280        0.43370
C          0.66200       -2.82680       -2.22350
H          1.43400       -2.61720       -0.21050
H          2.66040       -2.54080       -1.52090
H         -0.37330       -2.48050       -2.02850
H          0.70310       -3.93320       -2.13820
H          0.95990       -2.54940       -3.25870
H          5.65740        0.73560       -3.80140
H          5.26410        2.37350       -4.47820
H          5.27350        0.91980       -5.55750
