22
TSA8_9_CHF2_CH2F_NO2
C          1.94860       -1.83810       -1.01720
C          0.61380       -2.32610       -0.48940
C          1.89550       -0.30350       -1.18620
H          2.72750       -2.06680       -0.25510
C          0.53660       -2.98300        0.85950
C          2.31300       -2.57970       -2.33670
C          3.69650       -2.20020       -2.81740
C          3.90660       -1.62130       -4.00320
O         -0.40050       -2.18800       -1.15860
N          2.26740       -4.01860       -2.14140
H          1.55820       -2.30570       -3.10990
H          4.54940       -2.40650       -2.17670
H          3.08380       -1.39690       -4.67450
H          4.91650       -1.36630       -4.30810
F          3.13200        0.20440       -1.54030
F          0.96600        0.05860       -2.14660
H          1.60740        0.16310       -0.21970
F         -0.76350       -3.35520        1.15320
H          0.89290       -2.27410        1.63610
H          1.18130       -3.88650        0.87050
O          2.98730       -4.54860       -1.34840
O          1.42520       -4.74930       -2.83970
