22
TSA8_9_CHF2_CH2F_NO2
C          1.72700       -0.12270       -0.02890
C          1.43400       -1.42780       -0.25380
C          1.85790        0.97740       -1.05330
H          1.86590        0.20090        0.99920
C          1.27030       -2.36890        0.90720
C          2.64490       -4.14200       -3.71670
C          2.73000       -3.45000       -2.56760
C          2.27750       -2.02480       -2.44440
O          1.28220       -1.97530       -1.48770
N          3.07510       -5.49600       -3.81270
H          2.23650       -3.66000       -4.60220
H          3.13490       -3.92060       -1.67780
H          1.88760       -1.62930       -3.40650
H          3.16230       -1.42220       -2.14130
F          3.15020        1.46660       -1.04250
F          1.52000        0.59100       -2.33320
H          1.16440        1.79550       -0.76690
F          0.00340       -2.92110        0.87740
H          1.41820       -1.86660        1.88630
H          2.01880       -3.18410        0.81630
O          3.52650       -6.06860       -2.86520
O          2.96790       -6.13000       -4.95890
