19
TSA8_9_NO2_CH2F_I
C          2.11710        0.09550       -0.21420
C          1.65090       -0.67260       -1.25060
N          1.92930        1.48600        0.05890
H          2.71560       -0.42470        0.53160
C          1.98700       -2.14340       -1.22620
C          2.30690        1.64820       -4.74170
C          1.99730        1.49230       -3.44980
C          0.69210        0.87790       -3.01680
O          0.92120       -0.30740       -2.35200
I          4.15710        2.48880       -5.30800
H          1.61950        1.34020       -5.52410
H          2.71050        1.80540       -2.69440
H          0.07550        0.63410       -3.90840
H          0.05750        1.56510       -2.44150
O          2.47450        1.95560        1.00990
O          1.07290        2.22940       -0.59220
F          0.81810       -2.88110       -1.22140
H          2.59330       -2.44450       -0.34480
H          2.56760       -2.39460       -2.13940
