15
TSA8_9_H_OH_I
C          1.08880       -0.23970       -1.48370
C          1.81260       -1.29470       -0.68500
H          1.84570        0.43820       -1.93370
H          0.43770        0.36630       -0.81690
O          1.59210       -1.43400        0.63970
C          0.23430       -0.85840       -2.59840
C         -0.85240       -1.73070       -2.02290
C         -0.93980       -3.03300       -2.30770
O          2.61230       -2.03280       -1.23820
I         -0.68140        0.69620       -3.74710
H          0.89220       -1.43620       -3.28520
H         -1.58480       -1.28670       -1.35500
H         -0.22540       -3.51370       -2.96880
H         -1.73520       -3.62970       -1.87310
H          0.96290       -0.87350        1.11430
