15
TSA8_9_H_OH_I
C          2.28970       -0.23450        0.02710
C          1.37910       -1.14020       -0.34550
H          2.77840        0.39010       -0.71430
H          2.55420       -0.10810        1.07240
O          0.76980       -1.91960        0.57980
C         -1.07020       -1.49250       -4.27840
C         -0.87180       -1.29970       -2.97060
C          0.12120       -2.11050       -2.18950
O          1.08020       -1.26540       -1.66470
I         -2.47690       -0.32230       -5.33010
H         -0.51540       -2.24940       -4.82440
H         -1.44210       -0.53500       -2.45340
H          0.62630       -2.85620       -2.84090
H         -0.42550       -2.66580       -1.39740
H          0.96570       -1.85560        1.52580
