25
TSA8_9_CBr3_Et_NO2
C          2.58020        0.11770        1.12150
C          1.31200        0.96340        1.21790
C          2.23040       -1.35150        0.69810
H          3.18000        0.51010        0.27050
C          1.09470        2.16650        0.33740
C          3.46010        0.36800        2.40580
C          2.71010        0.27310        3.72280
C          2.55340        1.34040        4.51600
O          0.43480        0.65540        2.01200
N          4.64470       -0.46870        2.47130
H          3.80040        1.42370        2.29880
H          2.28920       -0.67140        4.04410
H          2.95760        2.31090        4.24190
H          2.01370        1.24960        5.45200
Br         1.05820       -1.34440       -0.85880
Br         3.78880       -2.33740        0.07370
Br         1.33480       -2.39730        2.06840
C          2.10680        3.26640        0.64250
H          0.07800        2.57920        0.52010
H          1.16200        1.86760       -0.72990
H          2.02480        3.57220        1.70830
H          1.89780        4.14990        0.00380
H          3.14200        2.92270        0.43990
O          4.55920       -1.61560        2.79090
O          5.83650        0.07920        2.36550
