23
TSA8_9_OMe_CBr3_NO2
C          1.18850        1.79310       -0.05480
C          2.36040        1.75300       -1.01520
O          1.66270        1.59150        1.26970
H          0.46480        1.00920       -0.38790
C          2.38960        0.76810       -2.16750
C          0.44210        3.14800       -0.15030
C         -0.83480        3.10240        0.65660
C         -2.03430        3.24870        0.08400
O          3.28700        2.53480       -0.85960
N          1.26880        4.25470        0.30350
H          0.18320        3.31040       -1.22250
H         -0.78080        2.94320        1.72960
H         -2.13200        3.40810       -0.98610
H         -2.93370        3.20850        0.68870
C          1.12470        0.42140        1.84380
H          1.34030        0.43970        2.93190
H          1.60970       -0.48100        1.41580
H          0.01690        0.37870        1.74680
Br         2.34320       -1.05250       -1.50390
Br         0.85890        1.05030       -3.32630
Br         3.99020        0.96060       -3.25500
O          1.65320        4.30760        1.43440
O          1.57870        5.22550       -0.52840
