20
TSA8_9_Et_I_Br
C          2.37970       -1.09460        0.24790
C          1.00020       -0.82060        0.81050
C          2.37160       -0.59700       -1.22490
H          3.10470       -0.48550        0.83090
I          0.75870        0.52350        2.42180
C          2.73480       -2.60150        0.43700
C          2.51110       -3.02890        1.86960
C          1.64050       -3.99000        2.19480
O          0.01450       -1.37170        0.34500
Br         4.60420       -3.00630        0.08170
H          2.09780       -3.21010       -0.24290
H          3.07350       -2.53900        2.65970
H          1.50560       -4.26980        3.23420
H          1.05860       -4.50270        1.43520
C          3.71510       -0.60590       -1.94940
H          2.03530        0.46420       -1.21590
H          1.63880       -1.18160       -1.82380
H          4.47020       -0.03020       -1.37370
H          3.59180       -0.13000       -2.94540
H          4.06900       -1.63530       -2.13650
