20
TSA8_9_I_CCl3_CHF2
C          2.05290       -0.72500       -2.27460
C          0.88240       -1.68590       -2.22150
I          1.67370        0.82130       -0.82430
H          2.98170       -1.24860       -1.95920
C          1.05610       -3.11160       -1.73530
C          2.25560       -0.11000       -3.68540
C          3.43320        0.84160       -3.66700
C          3.30180        2.14230       -3.94560
O         -0.22550       -1.28490       -2.54900
C          2.49780       -1.17740       -4.76720
H          1.32670        0.43990       -3.95890
H          4.41870        0.45660       -3.41930
H          2.33610        2.56920       -4.19720
H          4.17100        2.79140       -3.92110
Cl         2.21880       -3.99780       -2.75150
Cl         1.65540       -3.10440       -0.05670
Cl        -0.48810       -4.01120       -1.76140
F          2.62350       -0.57350       -6.00630
F          3.65040       -1.89690       -4.50030
H          1.63820       -1.87800       -4.81790
