17
TSA8_9_F_CHF2_Cl
C          3.03310        1.39880       -0.37790
C          1.53840        1.48310       -0.57730
F          3.34140        0.18010        0.20350
H          3.50640        1.42570       -1.38420
C          0.97200        1.68000       -1.95590
C          3.67010        2.55410        0.43350
C          3.24680        2.64050        1.88400
C          2.04580        3.08090        2.26960
O          0.78150        1.33990        0.37010
Cl         5.44420        2.32750        0.39120
H          3.46810        3.52850       -0.06230
H          3.96160        2.38030        2.66020
H          1.30260        3.40530        1.55070
H          1.80660        3.14270        3.32640
F         -0.41170        1.69290       -1.92100
F          1.42070        2.88050       -2.47500
H          1.30540        0.85060       -2.61410
