17
TSA8_9_F_CHF2_Cl
C          3.09810        1.43430       -0.15770
C          1.55320        1.61380       -0.31210
F          3.35420        0.52760        0.85850
H          3.54260        1.01780       -1.08780
C          1.14630        1.81790       -1.77440
C          3.71870        2.78520        0.20500
C          3.10540        3.31320        1.51410
C          1.66770        2.79740        1.70440
O          1.01280        2.69060        0.46020
Cl         5.49610        2.69290        0.33230
H          3.47380        3.50160       -0.60660
H          3.67920        3.00980        2.41700
H          1.11420        3.48740        2.37400
H          1.66240        1.80610        2.21440
F         -0.23230        1.86910       -1.86660
F          1.67610        2.99290       -2.27620
H          1.50530        0.96480       -2.38780
