26
TSA8_9_Me_CH2F_Et
C          2.93120       -0.73120       -0.36490
C          1.55060       -1.33080        0.01850
C          2.66760        0.54720       -1.17770
H          3.43970       -0.45130        0.58410
C          1.40160       -1.87800        1.44660
C          3.80620       -1.74140       -1.17540
C          3.35780       -3.16220       -0.85000
C          1.87370       -3.31760       -1.24820
O          1.02690       -2.20390       -0.96470
C          5.32620       -1.62610       -0.90630
H          3.61540       -1.61270       -2.26580
H          3.52670       -3.36720        0.22510
H          1.45860       -4.24540       -0.80190
H          1.86210       -3.44180       -2.35160
H          2.10900        0.30480       -2.10820
H          3.59710        1.06870       -1.46640
H          2.05640        1.25630       -0.57920
F          0.07480       -2.18480        1.68300
H          1.71480       -1.09970        2.17340
H          2.00660       -2.78430        1.62710
C          5.94070       -0.27410       -1.25490
H          5.84440       -2.39780       -1.51690
H          5.53560       -1.83900        0.16590
H          5.75150       -0.02560       -2.32040
H          7.03750       -0.31810       -1.08820
H          5.54130        0.52060       -0.59410
