19
TSA8_9_NO2_CF3_Br
C          2.64420        1.03370       -1.09090
C          1.33090        0.86050       -1.83310
N          2.41680        0.92210        0.34260
H          3.32630        0.20290       -1.38680
C          1.10890       -0.31520       -2.74570
C          3.39360        2.34150       -1.49080
C          2.63450        3.63860       -1.30530
C          2.39070        4.18580       -0.11210
O          0.43220        1.67470       -1.67460
Br         3.91160        2.22120       -3.36610
H          4.35220        2.40610       -0.93130
H          2.30370        4.18290       -2.18560
H          1.85650        5.12870       -0.05180
H          2.73450        3.72580        0.80580
O          2.95840        0.05510        0.96060
O          1.51420        1.66460        0.94510
F         -0.16190       -0.26990       -3.29320
F          2.03560       -0.30010       -3.77040
F          1.24460       -1.48860       -2.02770
