23
TSA8_9_CH2F_CHF2_Me
C          2.80510       -0.47740       -1.30780
C          1.33240       -1.01920       -1.30190
C          2.82440        0.94950       -0.72310
H          3.43580       -1.09380       -0.62760
C          1.22120       -2.36280       -0.57870
C          3.35840       -0.59260       -2.75030
C          2.44880        0.15510       -3.74300
C          0.97150        0.03520       -3.33460
O          0.76400       -1.15290       -2.60470
C          4.82530       -0.18720       -2.92250
H          3.29660       -1.67400       -3.00870
H          2.68970        1.23510       -3.85200
H          0.33760        0.04570       -4.24490
H          0.64030        0.91150       -2.73250
F          4.11860        1.40870       -0.56960
H          2.35830        0.93420        0.28570
H          2.25910        1.66720       -1.34890
F         -0.10460       -2.75170       -0.52210
F          1.95050       -3.33150       -1.24630
H          1.60450       -2.26660        0.45890
H          4.97190        0.89660       -2.74160
H          5.15390       -0.40450       -3.96130
H          5.46530       -0.76750       -2.22450
