18
TSA8_9_NH2_NO2_H
C          2.71710       -0.76310       -0.92030
C          1.53380       -1.63350       -0.52130
N          2.42490        0.63710       -0.60300
H          3.59610       -1.06340       -0.31180
N          1.66430       -2.64680        0.38390
C          3.17920       -0.92440       -2.39490
C          2.22610       -0.43880       -3.46170
C          1.10410       -1.08110       -3.79610
O          0.43290       -1.39720       -0.99860
H          4.10190       -0.31200       -2.49700
H          3.46600       -1.97820       -2.60250
H          2.48940        0.45830       -4.01490
H          0.81300       -2.00610       -3.31330
H          0.47330       -0.68760       -4.58670
H          3.26610        1.22760       -0.79950
H          1.63110        0.98570       -1.18820
O          0.71460       -3.30290        0.69010
O          2.83000       -2.92140        0.93010
