18
TSA8_9_NH2_NO2_H
C          1.93640       -0.16750       -0.03920
C          1.56590       -1.42730       -0.42360
N          2.04040        0.99080       -0.85570
H          2.16910       -0.00420        1.00800
N          1.49240       -2.44690        0.57900
C          3.40200       -1.66960       -4.32130
C          2.83240       -1.05310       -3.28120
C          1.37510       -1.24670       -2.93930
O          1.24230       -1.82770       -1.69480
H          4.45410       -1.51070       -4.53470
H          2.83360       -2.33440       -4.96430
H          3.44820       -0.40350       -2.66920
H          0.91120       -1.93770       -3.67540
H          0.78300       -0.31580       -3.01190
H          2.33260        1.87440       -0.41440
H          1.82400        1.03260       -1.85100
O          1.16810       -3.55400        0.27210
O          1.77700       -2.19310        1.83970
