14
TSA8_9_Cl_Br_I
C          1.72930        0.09050       -0.23740
C          2.03550        1.30600       -0.71390
Cl         2.53880       -0.60770        1.16210
H          0.96350       -0.50350       -0.72370
Br         3.40900        2.38080        0.08780
C          0.01600        4.90500       -1.46090
C          0.26400        3.70490       -0.92740
C          0.15980        2.43440       -1.73130
O          1.38470        1.79630       -1.79750
I          0.19730        6.64960       -0.28730
H         -0.27450        5.00730       -2.50180
H          0.55440        3.63960        0.11660
H         -0.17160        2.65670       -2.76870
H         -0.59960        1.77130       -1.27160
