14
TSA8_9_Cl_Br_I
C          1.61570        1.91610       -0.02810
C          2.11420        1.30190       -1.37240
Cl         2.89900        1.89270        1.22170
H          0.77750        1.30440        0.36930
Br         3.85610        2.00410       -1.89350
C          1.09070        3.32640       -0.31700
C         -0.02720        3.26230       -1.37570
C         -0.04800        1.91740       -2.12650
O          1.25110        1.50180       -2.49430
I          0.39080        4.35330        1.43730
H          1.92650        3.92590       -0.73620
H         -1.03760        3.39760       -0.93260
H         -0.67370        2.02780       -3.03610
H         -0.52890        1.12220       -1.51350
