17
TSA8_9_I_OH_NH2
C          1.95690        0.04650        0.23910
C          1.48250        0.18510        1.50140
I          2.57590       -1.69080       -0.81150
H          2.01170        0.93250       -0.38720
O          1.09120        1.41610        1.90810
C          3.68570       -0.77390        4.15090
C          3.51560       -1.51050        3.04350
C          2.13840       -1.93560        2.60820
O          1.34090       -0.82430        2.40650
N          4.97320       -0.36210        4.57140
H          2.82150       -0.48170        4.74530
H          4.37270       -1.80720        2.44540
H          1.68940       -2.54740        3.42000
H          2.17480       -2.58390        1.72130
H          1.16110        2.20550        1.35190
H          5.81520       -0.61590        4.03530
H          5.07590        0.20460        5.42680
