17
TSA8_9_I_OH_NH2
C          2.95760        0.23070        1.71520
C          1.42220       -0.01480        1.65960
I          3.97770       -0.87960        0.16910
H          3.16900        1.29390        1.46710
O          0.76640        1.17080        2.00100
C          3.43350       -0.10100        3.13450
C          3.12150       -1.57160        3.47510
C          1.88420       -2.07490        2.70850
O          0.93850       -1.04330        2.53040
N          4.84690        0.21760        3.33600
H          2.83340        0.53730        3.82170
H          3.95740       -2.26630        3.24100
H          1.42970       -2.91650        3.27100
H          2.15890       -2.49580        1.71770
H          0.35530        1.48290        1.15520
H          5.44840       -0.40060        2.74610
H          5.09530        0.05630        4.33890
