20
TSA8_9_Me_H_CCl3
C          2.03030        1.93880       -0.62530
C          0.75940        1.97960       -1.43370
C          1.80990        0.96330        0.54700
H          2.83380        1.51210       -1.26430
H          0.76680        1.64710       -2.46660
C          2.47370        3.36000       -0.13100
C          3.70220        3.21680        0.75280
C          3.69370        3.57390        2.04160
O         -0.28480        2.37870       -0.93980
C          2.79930        4.37730       -1.27610
H          1.64250        3.78980        0.47390
H          4.61660        2.80940        0.33050
H          2.80260        3.98360        2.50620
H          4.58960        3.45530        2.64270
H          1.02070        1.34110        1.23200
H          2.74380        0.81550        1.12800
H          1.50330       -0.03320        0.16140
Cl         3.34860        5.93220       -0.58270
Cl         4.09060        3.77730       -2.35820
Cl         1.38220        4.78480       -2.28360
