20
TSA8_9_Me_H_CCl3
C          1.78200        0.11520       -0.13860
C          1.58720        1.38080       -0.53500
C          1.77440       -0.30790        1.30340
H          1.96880       -0.64410       -0.89170
H          1.62410        1.61780       -1.59440
C          2.89960        5.36230       -0.39390
C          2.93060        4.01970       -0.35620
C          2.33500        3.24110        0.78800
O          1.35210        2.37230        0.35750
C          3.51820        6.13790       -1.52820
H          2.42230        5.90700        0.41540
H          3.41320        3.46930       -1.15930
H          1.89050        3.92340        1.54380
H          3.14240        2.66310        1.28660
H          1.57760        0.53790        1.99490
H          2.76360       -0.74230        1.55690
H          0.99160       -1.07850        1.45760
Cl         3.30750        7.88550       -1.25370
Cl         5.26450        5.79320       -1.63540
Cl         2.73750        5.71140       -3.07430
