18
TSA8_9_Cl_CCl3_CN
C          2.82400       -0.03300        1.68180
C          1.57670        0.87030        1.42070
Cl         2.38750       -1.61980        0.98260
H          3.70550        0.30900        1.09910
C          1.69470        2.25150        0.73820
C          3.16150       -0.23210        3.18790
C          2.27510        0.62830        4.06090
C          0.83020        0.35300        3.64770
O          0.49170        0.79800        2.34210
C          4.57290       -0.03360        3.54780
H          2.93460       -1.28200        3.47440
H          2.51080        1.70940        3.96740
H          0.17140        0.86090        4.37870
H          0.62530       -0.73870        3.71000
Cl         2.82850        2.22170       -0.63870
Cl         0.09430        2.68000        0.07220
Cl         2.18340        3.53640        1.86790
N          5.67310        0.10940        3.87860
