19
TSA8_9_Me_NH2_F
C          1.94140       -0.05280        0.04680
C          1.30460       -0.26870        1.21270
C          2.03420       -1.07590       -1.05040
H          2.41440        0.90880       -0.13240
N          1.26360        0.77270        2.18570
C         -0.21770       -4.12080        3.37450
C         -0.51410       -3.20760        2.44310
C         -0.04920       -1.78450        2.55020
O          0.71040       -1.47170        1.44230
F         -0.65910       -5.39780        3.23950
H          0.37410       -3.85810        4.24620
H         -1.11120       -3.49990        1.58370
H          0.55270       -1.63910        3.47450
H         -0.94060       -1.12240        2.58730
H          1.52410       -2.02770       -0.79400
H          3.10230       -1.29310       -1.25810
H          1.56520       -0.66440       -1.96830
H          0.78570        0.64800        3.08790
H          1.71800        1.68020        2.00550
