23
TSA8_9_OMe_Me_NH2
C          1.10920        0.26100       -1.30770
C          1.59580       -0.99140       -0.60710
O          2.15520        1.21910       -1.30310
H          0.18610        0.64070       -0.80070
C          0.87630       -1.51990        0.59460
C          0.71460       -0.04090       -2.76890
C         -0.40710       -1.05870       -2.82140
C         -0.26540       -2.24100       -3.42490
O          2.58720       -1.57260       -1.02440
N          0.29330        1.19270       -3.43580
H          1.61280       -0.43070       -3.30040
H         -1.35780       -0.81940       -2.35050
H          0.66870       -2.51890       -3.90530
H         -1.09090       -2.94490       -3.44070
C          2.00920        2.12440       -0.22870
H          1.32170        2.94790       -0.51660
H          3.00380        2.55980       -0.00020
H          1.66670        1.63150        0.70990
H          1.37180       -2.43640        0.97520
H         -0.17090       -1.76610        0.32170
H          0.87530       -0.75320        1.39730
H         -0.56380        1.57870       -2.97550
H          0.07040        0.98810       -4.43670
