23
TSA8_9_OMe_Me_NH2
C          1.13510        0.07720       -1.43340
C          1.61230       -1.36780       -1.10660
O          2.08280        0.99090       -0.90420
H          0.09950        0.21950       -1.03200
C          1.36400       -1.76210        0.34680
C          1.06580        0.19440       -2.96250
C          0.06900       -0.84510       -3.52410
C         -0.06790       -2.05850       -2.58770
O          1.17590       -2.38690       -2.00890
N          0.70950        1.54740       -3.38960
H          2.07930       -0.04890       -3.35460
H         -0.95490       -0.43450       -3.66510
H         -0.46300       -2.92190       -3.16200
H         -0.81170       -1.85680       -1.78240
C          1.44280        2.03930       -0.21090
H          0.82960        2.65930       -0.90000
H          2.22240        2.69980        0.22040
H          0.83770        1.65330        0.63900
H          1.82550       -2.75160        0.54680
H          0.27370       -1.82440        0.54740
H          1.81920       -1.01440        1.02940
H         -0.24920        1.79080       -3.04670
H          0.71370        1.59210       -4.43440
