23
TSA8_9_CH2F_Cl_Et
C          2.87670       -0.99350        0.99400
C          1.50310       -0.59340        1.49390
C          2.86720       -0.80710       -0.54400
H          3.59950       -0.27780        1.44300
Cl         1.32470        0.77940        2.57580
C          3.21900       -2.42580        1.53510
C          2.50870       -3.51910        0.76150
C          1.58250       -4.30220        1.32250
O          0.50710       -1.21470        1.15430
C          4.72460       -2.76420        1.72030
H          2.85640       -2.43540        2.59080
H          2.75900       -3.67880       -0.28260
H          1.29870       -4.18300        2.36330
H          1.09920       -5.07500        0.73340
F          4.08620       -1.03140       -1.13530
H          2.58070        0.24060       -0.77990
H          2.11570       -1.47120       -1.02100
C          5.60450       -2.88210        0.47940
H          4.77010       -3.74870        2.23760
H          5.18690       -2.01610        2.40180
H          5.18070       -3.60420       -0.24850
H          6.60660       -3.24870        0.78740
H          5.77790       -1.89660        0.01840
