23
TSA8_9_CH2F_Cl_Et
C          2.93310       -1.03700        0.83830
C          1.39860       -0.96760        0.99470
C          3.26760       -0.96010       -0.66030
H          3.36200       -0.11950        1.29820
Cl         0.84560       -0.45150        2.62300
C          3.43740       -2.29810        1.60850
C          2.64320       -3.54030        1.17400
C          1.14260       -3.26590        1.30860
O          0.74720       -2.14290        0.53680
C          4.96670       -2.55920        1.64440
H          3.17020       -2.09870        2.67140
H          2.86530       -3.79640        0.11680
H          0.85550       -3.14410        2.37550
H          0.59300       -4.15710        0.94090
F          4.60680       -0.68180       -0.85010
H          2.71770       -0.10440       -1.10840
H          2.96920       -1.87850       -1.20550
C          5.58900       -3.26550        0.42980
H          5.16150       -3.24350        2.50020
H          5.49600       -1.60560        1.85760
H          5.14230       -4.27150        0.29230
H          6.67460       -3.40790        0.61600
H          5.48550       -2.71300       -0.51360
