24
TSA8_9_OMe_Et_H
C          1.35610       -0.06110       -0.04600
C          1.32400       -0.24460       -1.37820
O          1.27130        1.18310        0.47970
H          1.46680       -0.91670        0.61710
C          1.45270       -1.62580       -1.96890
C          1.21860        3.76560       -2.37880
C          0.30190        2.97650       -1.81460
C          0.04370        1.58200       -2.30210
O          1.18980        0.81150       -2.22350
H          1.37270        4.77000       -1.99800
H          1.81760        3.41810       -3.21480
H         -0.28140        3.35370       -0.98040
H         -0.29410        1.60850       -3.35990
H         -0.77590        1.13710       -1.69660
C          1.33350        1.41480        1.83500
H          1.25330        2.50520        2.02140
H          2.30310        1.05290        2.24050
H          0.49650        0.89780        2.35090
C          0.20580       -1.97710       -2.77510
H          1.58330       -2.39260       -1.17450
H          2.34330       -1.65720       -2.63190
H         -0.69270       -1.95400       -2.11900
H          0.30860       -2.99320       -3.20410
H          0.06240       -1.25260       -3.60680
