24
TSA8_9_OMe_Et_H
C          1.48060        1.08440       -0.64300
C          0.71040        0.14430       -1.60180
O          0.84360        0.97960        0.61850
H          2.56200        0.80090       -0.60740
C          1.31240       -1.26270       -1.68150
C          1.39160        2.53160       -1.18090
C         -0.03550        2.80140       -1.65460
C         -0.39930        1.77620       -2.76060
O          0.54930        0.72120       -2.87590
H          1.73180        3.27290       -0.42900
H          2.06050        2.63280       -2.06610
H         -0.71440        2.69020       -0.78190
H         -0.39190        2.32350       -3.72330
H         -1.43100        1.38380       -2.61840
C          1.75030        1.22790        1.66750
H          2.17890        2.25100        1.60630
H          2.54390        0.45110        1.70540
H          1.19200        1.17300        2.62640
C          0.45280       -2.18780       -2.53790
H          1.38680       -1.68950       -0.65840
H          2.33290       -1.20490       -2.12030
H         -0.56770       -2.27330       -2.10630
H          0.91400       -3.19730       -2.57380
H          0.37860       -1.80190       -3.57460
