21
TSA8_9_CN_CBr3_CBr3
C          2.90700       -0.66750       -1.34230
C          1.73220       -1.53890       -0.80050
C          2.52090        0.74150       -1.02190
H          3.80420       -0.91860       -0.74660
C          1.83710       -2.48470        0.39600
C          3.10760       -0.88280       -2.93280
C          2.16090        0.10020       -3.57740
C          0.90710       -0.20700       -3.84560
O          0.63150       -1.44250       -1.32420
C          4.45430       -0.81330       -3.77020
H          2.80190       -1.93790       -3.09760
H          2.47890        1.14100       -3.65730
H          0.55640       -1.21830       -3.70040
H          0.23370        0.58460       -4.13860
N          2.17220        1.81480       -0.76040
Br         2.59000       -1.59640        1.94340
Br         0.07970       -3.13120        0.96360
Br         2.89580       -4.04820       -0.01840
Br         4.05710       -1.39230       -5.60240
Br         5.28320        0.93760       -3.97650
Br         5.83420       -2.04500       -3.19260
