21
TSA8_9_CN_CBr3_CBr3
C          2.90800       -0.74910       -1.44950
C          1.53480       -1.37130       -1.01640
C          2.73230        0.70120       -1.22340
H          3.73530       -1.09590       -0.79410
C          1.62940       -2.44300        0.09100
C          3.14300       -1.14350       -2.95050
C          1.99490       -0.53420       -3.75150
C          0.64840       -0.92330       -3.14250
O          0.78430       -1.88870       -2.11350
C          4.48850       -0.92770       -3.70000
H          3.03390       -2.24920       -2.98740
H          2.08880        0.57480       -3.82580
H          0.08630       -1.38730       -3.97680
H          0.07440       -0.03600       -2.79870
N          2.56080        1.83710       -1.07570
Br         2.40450       -1.72590        1.71940
Br        -0.15220       -3.06610        0.54350
Br         2.67330       -3.97720       -0.48110
Br         4.27400       -1.56330       -5.54100
Br         5.09930        0.90800       -3.79940
Br         5.90280       -2.02610       -2.95580
