19
TSA8_9_OH_CN_CHF2
C          1.60540        0.05790        0.03020
C          1.46150        0.68330        1.22410
O          1.54760       -1.28170       -0.11580
H          1.67370        0.65940       -0.87090
C          1.39090        2.12220        1.21540
C          2.70010       -2.60820        3.89410
C          2.33250       -1.98400        2.76910
C          1.02270       -1.26820        2.67270
O          1.24780        0.06980        2.42610
C          3.99530       -3.35020        3.98460
H          2.04770       -2.59290        4.76270
H          2.98780       -1.98350        1.90430
H          0.44510       -1.36430        3.61920
H          0.36650       -1.70950        1.89360
H          1.37310       -1.66190       -0.99010
N          1.33370        3.27580        1.21250
F          4.00330       -4.37750        3.05930
F          5.06000       -2.50070        3.74330
H          4.09610       -3.78120        5.00140
