24
TSA8_9_Me_OMe_CH2F
C          3.22930       -1.24730       -0.48330
C          2.21930       -1.55250        0.60050
C          2.80610        0.02980       -1.23120
H          4.19520       -1.03120        0.02590
O          2.62110       -1.53350        1.89720
C          3.45240       -2.49700       -1.39200
C          2.22270       -2.85740       -2.20160
C          1.58060       -4.01830       -2.04000
O          1.05780       -1.80880        0.31070
C          4.65970       -2.34840       -2.33440
H          3.70990       -3.33770       -0.70690
H          1.84960       -2.15670       -2.94250
H          1.91620       -4.75130       -1.31350
H          0.70500       -4.23990       -2.64170
H          1.83650       -0.10950       -1.75360
H          3.57320        0.34400       -1.96410
H          2.68970        0.86500       -0.50760
C          1.79580       -1.82310        2.96290
H          2.37300       -1.72780        3.90540
H          1.41690       -2.86420        2.87930
H          0.94240       -1.11250        2.99150
F          4.45350       -1.38040       -3.30030
H          4.84150       -3.31420       -2.85340
H          5.57170       -2.09930       -1.75120
