19
TSA8_9_CBr3_F_NO2
C          1.54590       -0.31190        2.50670
C          1.25160        0.93660        1.64520
C          1.56170       -1.60250        1.60990
H          2.58360       -0.22040        2.89680
F          1.63130        2.11270        2.27690
C          0.58640       -0.24830        3.73760
C         -0.87250       -0.07330        3.28940
C         -0.96200        1.13660        2.34930
O         -0.10470        0.99150        1.22740
N          0.76820       -1.35680        4.65920
H          0.83370        0.67980        4.30210
H         -1.26120       -0.98290        2.79690
H         -0.74000        2.07940        2.89730
H         -2.00820        1.22410        1.98980
Br        -0.07560       -2.02310        0.64540
Br         2.93210       -1.39210        0.24500
Br         2.07610       -3.19910        2.58790
O         -0.13970       -2.07970        4.94290
O          1.93010       -1.51870        5.25610
