20
TSA8_9_F_Et_Cl
C          2.04110        1.76680       -0.19640
C          0.84950        1.64250       -1.13480
F          1.62330        1.36380        1.06230
H          2.83470        1.05890       -0.51940
C          0.95780        1.89930       -2.62370
C          2.64340        3.19620       -0.11380
C          3.68420        3.31910        0.98010
C          3.38520        3.21620        2.28010
O         -0.22260        1.28060       -0.66800
Cl         3.45420        3.64210       -1.64720
H          1.84000        3.93650        0.09170
H          4.71770        3.52760        0.71550
H          2.37030        3.03850        2.61850
H          4.16660        3.32630        3.02500
C         -0.34320        1.61710       -3.37750
H          1.75440        1.24790       -3.04240
H          1.21570        2.96000       -2.80450
H         -0.63790        0.55300       -3.25450
H         -0.19890        1.82210       -4.45930
H         -1.15830        2.27080       -2.99930
