20
TSA8_9_F_Et_Cl
C          2.04300        0.17240       -0.23550
C          1.55600        1.35710       -0.65090
F          2.19440       -0.11080        1.08330
H          2.31070       -0.59610       -0.95550
C          1.36720        1.63380       -2.12030
C          2.71210        4.76910       -0.36290
C          3.09660        3.74810        0.41260
C          2.08100        2.91140        1.14090
O          1.21110        2.33000        0.23490
Cl         3.89980        5.73860       -1.21750
H          1.65980        5.01120       -0.47890
H          4.15070        3.51610        0.51910
H          1.50290        3.57200        1.82060
H          2.58790        2.14570        1.76160
C         -0.08730        1.95860       -2.44050
H          1.68430        0.76770       -2.74170
H          1.99920        2.50490       -2.39780
H         -0.73420        1.09290       -2.19670
H         -0.18640        2.18390       -3.52350
H         -0.42280        2.84670       -1.86340
