20
TSA8_9_F_Et_Cl
C          2.94880        1.72770       -0.70620
C          1.38600        1.68110       -0.70400
F          3.44160        0.93890        0.32100
H          3.35360        1.31480       -1.65570
C          0.83690        1.83890       -2.13130
C          3.38970        3.17680       -0.49190
C          2.85070        3.69750        0.85250
C          1.56150        2.96310        1.26090
O          0.77410        2.67500        0.12750
Cl         5.16300        3.35710       -0.57440
H          2.94750        3.78870       -1.30680
H          3.57210        3.56880        1.68820
H          0.99090        3.59190        1.97480
H          1.79060        2.01700        1.80330
C         -0.68220        1.69050       -2.16670
H          1.27430        1.04920       -2.77990
H          1.11540        2.83240       -2.54360
H         -0.98040        0.69530       -1.77340
H         -1.03950        1.78260       -3.21410
H         -1.16840        2.48390       -1.56080
