27
TSA8_9_CH2F_OMe_Et
C          1.64180        0.15620       -0.09530
C          1.68160       -1.05360        0.50660
C          1.59040        0.42080       -1.57540
H          1.61720        1.03600        0.54160
O          1.64850       -1.07820        1.86300
C          4.38690       -4.24940       -1.55350
C          3.44180       -3.73420       -0.75550
C          2.61620       -2.55890       -1.18370
O          1.73960       -2.23970       -0.16460
C          5.23370       -5.41640       -1.12180
H          4.55300       -3.82160       -2.53870
H          3.27190       -4.16560        0.22770
H          2.04170       -2.82040       -2.09870
H          3.30930       -1.71660       -1.40080
F          2.70690        1.14270       -1.95210
H          0.68390        1.02210       -1.79380
H          1.52030       -0.49180       -2.19200
C          1.72530       -2.23980        2.60120
H          1.68060       -1.99060        3.68090
H          2.68580       -2.76020        2.39540
H          0.87570       -2.91090        2.35100
C          6.08380       -5.07270        0.10160
H          5.91390       -5.69330       -1.95530
H          4.58150       -6.28690       -0.89430
H          6.75030       -4.21300       -0.12480
H          6.71020       -5.94670        0.37690
H          5.44340       -4.81520        0.97170
