27
TSA8_9_CH2F_OMe_Et
C          3.25040       -2.03760       -0.16180
C          1.85000       -2.39110        0.38210
C          3.24680       -0.62660       -0.78840
H          3.95880       -1.98740        0.68740
O          1.48650       -1.52340        1.42370
C          3.69010       -3.13790       -1.18580
C          2.46710       -3.94410       -1.68630
C          1.24150       -3.03310       -1.83560
O          0.85230       -2.36790       -0.63220
C          4.71070       -4.14630       -0.60170
H          4.17380       -2.65380       -2.06320
H          2.18210       -4.71700       -0.93650
H          0.39390       -3.66350       -2.17730
H          1.43820       -2.28160       -2.62760
F          4.52170       -0.29220       -1.21130
H          2.92840        0.12360       -0.03370
H          2.55710       -0.55680       -1.65290
C          1.53850       -2.26730        2.61430
H          1.26440       -1.59950        3.45710
H          2.57050       -2.63650        2.81680
H          0.80310       -3.10310        2.60260
C          6.06390       -3.52180       -0.24910
H          4.90880       -4.92980       -1.36610
H          4.28580       -4.63930        0.30040
H          6.51520       -3.05170       -1.14810
H          6.74750       -4.31750        0.11460
H          5.98100       -2.76250        0.55300
