20
TSA8_9_CHF2_F_CF3
C          1.62060        0.53840        2.27520
C          1.42240        1.18580        0.92070
C          1.55270       -0.99750        2.11720
H          2.65510        0.79120        2.59680
F          2.42670        1.91940        0.37330
C          0.63240        1.16730        3.31740
C         -0.82010        0.91830        2.95970
C         -1.65840        1.91760        2.66560
O          0.37880        1.04610        0.30210
C          0.87410        0.73370        4.77940
H          0.83640        2.26310        3.29520
H         -1.19790       -0.09960        2.94450
H         -1.32580        2.95110        2.67020
H         -2.69200        1.70230        2.41600
F          2.42420       -1.40100        1.11940
F          1.93430       -1.63930        3.27820
H          0.53030       -1.32250        1.83380
F          0.52800       -0.58810        4.99020
F          2.20160        0.92100        5.12130
F          0.09590        1.51190        5.61910
