20
TSA8_9_CHF2_F_CF3
C          1.82590        0.00970        0.06820
C          1.11650        0.93610        0.73510
C          2.17480       -1.36330        0.58530
H          2.17260        0.25790       -0.93060
F          0.86550        2.12650        0.12480
C         -0.23590        1.79290        5.10900
C         -0.49490        1.05880        4.01240
C         -0.20200        1.57640        2.63370
O          0.64690        0.70540        1.98650
C         -0.52010        1.31460        6.50750
H          0.19360        2.78460        5.00180
H         -0.93430        0.06980        4.10070
H          0.25790        2.58950        2.67850
H         -1.15690        1.64370        2.06940
F          3.54940       -1.50600        0.60470
F          1.68160       -1.60560        1.85500
H          1.74720       -2.11910       -0.10560
F         -1.04840        0.03460        6.52210
F          0.65560        1.32050        7.23410
F         -1.42130        2.17650        7.10400
