21
TSA8_9_Cl_CH2F_OMe
C          3.27540       -0.09070       -1.74020
C          1.71380       -0.17790       -1.67660
Cl         3.82130        0.87530       -0.32930
H          3.72640       -1.09950       -1.61640
C          1.22590       -1.57450       -2.06490
C          3.66360        0.51460       -3.11350
C          3.02630        1.90130       -3.32090
C          1.70710        2.01230       -2.53660
O          1.03610        0.77050       -2.50960
O          5.02980        0.45000       -3.50610
H          3.14630       -0.14600       -3.84290
H          3.66570        2.75600       -3.01910
H          1.06540        2.78240       -3.01200
H          1.87880        2.36760       -1.49650
F         -0.14840       -1.64210       -1.92750
H          1.68260       -2.33510       -1.39720
H          1.49670       -1.80500       -3.11690
C          5.92280        1.00580       -2.56820
H          6.89190        1.17960       -3.07890
H          6.11710        0.28760       -1.74440
H          5.59720        1.99740       -2.19250
