17
TSA8_9_CF3_I_I
C          1.57540       -1.20110        1.15230
C          0.79490        0.09450        1.19450
C          1.49130       -1.81810       -0.26660
H          2.64250       -0.94780        1.33440
I          1.78960        1.92030        1.56220
C          1.13960       -2.13100        2.32310
C         -0.28500       -2.62220        2.22060
C         -1.20970       -2.30230        3.13130
O         -0.41310        0.10720        1.01470
I          2.42710       -3.83190        2.56620
H          1.27020       -1.54960        3.26360
H         -0.57190       -3.26190        1.39320
H         -0.96950       -1.66890        3.97980
H         -2.22300       -2.67690        3.02940
F          2.26120       -2.96100       -0.35930
F          0.18780       -2.12760       -0.61060
F          1.97560       -0.90610       -1.18880
