17
TSA8_9_CF3_I_I
C          1.77110       -1.43950        1.17010
C          0.85900       -0.21410        1.38160
C          1.63270       -1.93420       -0.29310
H          2.83080       -1.12400        1.28770
I          1.41790        1.07350        3.01850
C          1.43750       -2.47450        2.27640
C         -0.06250       -2.76600        2.31480
C         -0.82550       -1.44000        2.43560
O         -0.51990       -0.55520        1.36920
I          2.56500       -4.29850        2.20390
H          1.70210       -2.02130        3.25660
H         -0.38600       -3.31800        1.41040
H         -0.62930       -0.96250        3.42040
H         -1.91240       -1.66140        2.41280
F          2.49810       -2.98130       -0.54320
F          0.34490       -2.33760       -0.59270
F          1.96760       -0.90080       -1.15060
