17
TSA8_9_Cl_F_CCl3
C          1.86730        1.76110       -1.46400
C          0.58950        1.51040       -2.21350
Cl         1.60150        1.21620        0.22320
H          2.66520        1.12000       -1.89580
F          0.57760        0.64550       -3.26110
C          2.32800        3.25170       -1.49910
C          3.56020        3.39110       -0.62090
C          3.57110        4.16640        0.46860
O         -0.44430        2.07170       -1.88430
C          2.65600        3.80090       -2.92630
H          1.50840        3.87670       -1.07700
H          4.46230        2.84430       -0.88030
H          2.69270        4.72980        0.76720
H          4.46980        4.23990        1.07220
Cl         1.22990        3.85360       -3.99940
Cl         3.23470        5.48980       -2.81860
Cl         3.92560        2.83960       -3.74070
