23
TSA8_9_Et_H_CH2F
C          2.49880        1.16300        1.01920
C          1.34200        1.60690        0.14710
C          2.49540       -0.39500        1.01390
H          3.41570        1.51490        0.49650
H          1.54230        2.15410       -0.76880
C          2.40150        1.92660        2.38670
C          1.27650        1.40940        3.25650
C          0.21600        2.15980        3.57050
O          0.18780        1.35300        0.44890
C          3.70500        2.02040        3.20250
H          2.20620        2.99000        2.11020
H          1.33090        0.39500        3.64040
H          0.12100        3.17880        3.20860
H         -0.56910        1.75140        4.19800
C          3.73210       -1.09180        1.56960
H          2.44760       -0.71040       -0.05330
H          1.58630       -0.79220        1.51480
H          4.65090       -0.70580        1.07960
H          3.65270       -2.18040        1.35820
H          3.79990       -1.00930        2.65950
F          4.06020        0.84420        3.82070
H          3.56030        2.76790        4.01400
H          4.53790        2.37840        2.56200
