23
TSA8_9_Et_H_CH2F
C          1.77910        0.25300       -0.09340
C          1.31840        1.52710       -0.03780
C          1.88350       -0.80090        0.98240
H          2.11540       -0.07800       -1.07310
H          1.33630        2.06850       -0.97880
C          2.45570        2.88050        3.93700
C          2.12870        1.99340        2.98450
C          0.75040        1.96010        2.37180
O          0.80940        2.22740        1.01960
C          3.83000        2.90680        4.53330
H          1.72380        3.60080        4.29130
H          2.87770        1.28810        2.64530
H          0.12340        2.75120        2.83590
H          0.21280        1.01300        2.56500
C          3.32580       -1.28480        1.10360
H          1.24750       -1.66150        0.68520
H          1.54810       -0.47960        1.97280
H          3.67830       -1.69670        0.13340
H          3.38750       -2.08670        1.86930
H          3.99360       -0.45060        1.40490
F          4.10370        1.69670        5.14460
H          3.89250        3.71590        5.29080
H          4.58310        3.09950        3.74030
