23
TSA8_9_Et_H_CH2F
C          2.42080        1.22670        1.17960
C          1.12200        1.72740        0.46230
C          2.33490       -0.30800        1.40870
H          3.24830        1.38370        0.45120
H          1.43100        2.47860       -0.29640
C          2.61950        2.12500        2.43340
C          1.38660        2.04960        3.35870
C          0.09960        1.79590        2.56070
O          0.17950        2.40320        1.29510
C          3.91880        1.97150        3.23530
H          2.64870        3.15890        2.01930
H          1.45190        1.25700        4.13530
H         -0.76330        2.20270        3.12680
H         -0.11160        0.71090        2.43990
C          3.69480       -1.00620        1.51950
H          1.87250       -0.75930        0.50240
H          1.69440       -0.56480        2.27500
H          4.29410       -0.81700        0.60350
H          3.53470       -2.10180        1.60710
H          4.28760       -0.69000        2.38770
F          3.92040        0.82240        4.00250
H          4.00520        2.82530        3.94110
H          4.79920        1.99220        2.55910
