22
TSA8_9_CCl3_CF3_NO2
C          1.03200       -1.39750        0.90960
C          2.02680       -2.55440        0.65920
C          1.59240        0.06490        0.97940
H          0.40030       -1.36990       -0.00530
C          3.54540       -2.52510        0.68840
C          0.08670       -1.72810        2.12760
C         -0.78630       -2.94320        1.88190
C         -1.68400       -2.97680        0.89070
O          1.53770       -3.64370        0.39600
N          0.83760       -1.90990        3.36050
H         -0.62500       -0.88890        2.27570
H         -0.70450       -3.80790        2.53490
H         -1.81670       -2.13080        0.22330
H         -2.30340       -3.85580        0.74720
Cl         2.53080        0.45780       -0.49250
Cl         0.24180        1.23860        0.97500
Cl         2.56250        0.43030        2.43800
F          4.09880       -1.30960        1.00630
F          3.98740       -3.44260        1.62390
F          4.02280       -2.90060       -0.55380
O          1.62550       -2.80210        3.47400
O          0.60780       -1.12170        4.38870
