22
TSA8_9_CCl3_CF3_NO2
C          1.39150       -0.45070       -0.03290
C          1.96480       -1.49770        0.63460
C          2.01690        0.48170       -1.05920
H          0.35060       -0.24240        0.17250
C          3.41400       -1.91680        0.47980
C         -1.15160       -3.09450        3.82290
C         -0.52800       -3.30870        2.65290
C         -0.12890       -2.18700        1.73850
O          1.23060       -2.26110        1.49990
N         -1.53790       -4.16510        4.68060
H         -1.38170       -2.07690        4.12790
H         -0.30070       -4.32190        2.33310
H         -0.39120       -1.19630        2.17080
H         -0.67710       -2.32720        0.78220
Cl         2.51610       -0.39450       -2.52780
Cl         0.79600        1.67600       -1.57790
Cl         3.38710        1.41230       -0.40590
F          4.26760       -0.90710        0.87290
F          3.66890       -3.01380        1.28460
F          3.68800       -2.28280       -0.82150
O         -1.30770       -5.30120        4.39190
O         -2.16750       -3.89830        5.80270
