21
TSA8_9_CCl3_OMe_H
C          1.03160       -0.83390        0.96510
C          2.28560       -1.31590        1.69080
C          1.30880        0.38440        0.03000
H          0.68670       -1.65780        0.30290
O          3.45790       -0.63830        1.57440
C         -0.09090       -0.51090        1.99390
C         -0.54020       -1.71130        2.78800
C         -1.11510       -2.76810        2.20470
O          2.23090       -2.32830        2.37550
H          0.27430        0.26700        2.69850
H         -0.99090       -0.11210        1.48260
H         -0.40570       -1.71120        3.86560
H         -1.27700       -2.79710        1.13150
H         -1.43510       -3.61300        2.80540
Cl         2.54610       -0.02610       -1.19490
Cl        -0.15870        0.83290       -0.88690
Cl         1.85520        1.83080        0.93130
C          4.62590       -0.99730        2.21230
H          5.42490       -0.27810        1.93800
H          4.93780       -2.01610        1.89780
H          4.48300       -0.96980        3.31360
