21
TSA8_9_CCl3_OMe_H
C          1.29000       -0.53560       -0.10650
C          1.95970       -0.81690        1.03630
C          1.96440       -0.03430       -1.36270
H          0.21560       -0.67190       -0.14520
O          3.30490       -0.64050        1.07320
C         -1.11730       -1.48060        4.52150
C         -0.29110       -2.08020        3.65960
C         -0.02870       -1.52870        2.28900
O          1.32330       -1.27780        2.15450
H         -1.28220       -1.91340        5.50280
H         -1.63450       -0.56240        4.26050
H          0.20630       -2.99930        3.95620
H         -0.60270       -0.59130        2.11950
H         -0.34470       -2.29050        1.54430
Cl         3.14440       -1.23080       -1.96070
Cl         0.74650        0.22570       -2.63800
Cl         2.79070        1.51810       -1.06280
C          4.07290       -0.87200        2.19270
H          5.13610       -0.66280        1.95310
H          3.97910       -1.93250        2.51030
H          3.75420       -0.20200        3.01940
