19
TSA8_9_I_Me_NO2
C          2.05670       -0.06700        0.28780
C          1.49190       -0.47490        1.45250
I          2.76360       -1.18570       -1.37410
H          2.17300        0.99850        0.11290
C          1.04990        0.56580        2.44440
C          3.75300       -2.87920        2.90520
C          3.29760       -2.98490        1.64360
C          1.82110       -2.94440        1.35530
O          1.27040       -1.76980        1.82810
N          5.14020       -2.90690        3.22150
H          3.03830       -2.76450        3.71670
H          3.98990       -3.10080        0.81560
H          1.34260       -3.79200        1.88950
H          1.59720       -3.08600        0.28230
H          1.59570        0.40960        3.39850
H         -0.03840        0.45940        2.63190
H          1.24660        1.60300        2.09750
O          5.96620       -3.02360        2.36670
O          5.51920       -2.79150        4.47590
