19
TSA8_9_I_Me_NO2
C          2.99410       -0.81390        1.41530
C          1.43130       -0.78360        1.47540
I          3.61780       -1.08300       -0.63400
H          3.41490        0.17560        1.69940
C          0.94380        0.32320        2.40910
C          3.49380       -1.90590        2.37870
C          2.91310       -3.27590        1.98180
C          1.51420       -3.12150        1.35910
O          0.84300       -2.01220        1.91440
N          4.94030       -1.95100        2.49390
H          3.07080       -1.65040        3.37670
H          3.54000       -3.83460        1.25310
H          0.93260       -4.05020        1.53240
H          1.57130       -3.00610        0.25390
H          1.29650        0.14270        3.44680
H         -0.16600        0.35100        2.40510
H          1.31710        1.30910        2.06040
O          5.62220       -2.23060        1.55450
O          5.51090       -1.70360        3.65330
