20
TSA8_9_Me_Me_Br
C          2.73610        0.71470        0.93780
C          1.37650        1.34590        1.16710
C          2.55560       -0.66080        0.27380
H          3.27740        1.36820        0.21750
C          1.04170        2.65780        0.52190
C          3.63420        0.65290        2.21090
C          3.17890       -0.29390        3.30170
C          2.13550       -0.04950        4.10000
O          0.52790        0.77830        1.83690
Br         5.44410        0.14400        1.69150
H          3.74230        1.67190        2.64260
H          3.75030       -1.19980        3.48320
H          1.55200        0.85820        4.01130
H          1.87360       -0.75930        4.87750
H          2.01920       -1.35830        0.95200
H          3.53460       -1.10870        0.00780
H          1.96710       -0.55570       -0.66290
H          1.74640        3.43800        0.87800
H          0.00550        2.96870        0.77510
H          1.12670        2.56340       -0.58100
