24
TSA8_9_CCl3_OMe_CF3
C          1.38470        0.28420       -0.01540
C          1.84060        0.79310       -1.17510
C          2.16480        0.32850        1.27820
H          0.40210       -0.16530       -0.00310
O          3.07940        1.33840       -1.24740
C          0.14810        3.99600       -3.10660
C          0.33550        3.05580       -2.16860
C         -0.07790        1.61450       -2.35470
O          1.03790        0.80020       -2.27290
C          0.60050        5.42170       -2.92170
H         -0.33910        3.73480       -4.04140
H          0.81860        3.31580       -1.23170
H         -0.56350        1.46000       -3.34150
H         -0.80920        1.34520       -1.56610
Cl         2.37700        2.02470        1.78650
Cl         1.25790       -0.52220        2.55440
Cl         3.76130       -0.44970        1.11320
C          3.68030        1.75020       -2.41800
H          4.67960        1.27510       -2.49890
H          3.80230        2.85350       -2.40640
H          3.09840        1.46920       -3.32380
F          1.23950        5.61390       -1.70760
F          1.47820        5.74890       -3.93790
F         -0.49590        6.25960       -2.98470
