17
TSA8_9_CCl3_H_H
C          1.77690        0.02610        0.01730
C          1.11150        1.01760        0.63570
C          2.07880       -1.36170        0.55090
H          2.13700        0.23590       -0.98660
H          0.97460        1.95360        0.09750
C         -0.18870        2.16820        4.93790
C         -0.52610        1.45240        3.86110
C         -0.15010        1.88060        2.47320
O          0.60870        0.89410        1.88430
H         -0.47780        1.82940        5.92740
H          0.37320        3.09290        4.84600
H         -1.09100        0.53370        3.99170
H          0.42400        2.83440        2.49250
H         -1.07960        2.03570        1.88340
Cl         1.48490       -1.72590        2.19750
Cl         1.35590       -2.55230       -0.55670
Cl         3.84300       -1.59380        0.54820
