17
TSA8_9_CCl3_H_H
C          1.74900        0.66520        1.93740
C          1.23490        1.51870        0.76070
C          1.60390       -0.86450        1.66280
H          2.84280        0.83900        2.04410
H          1.59220        2.57240        0.82050
C          1.08450        1.19750        3.22940
C         -0.43320        1.30760        3.08540
C         -0.75620        2.09080        1.80500
O         -0.17980        1.47260        0.66520
H          1.36160        0.59970        4.12200
H          1.46040        2.23020        3.40270
H         -0.90570        0.30830        3.05940
H         -0.42110        3.14940        1.89230
H         -1.85830        2.11850        1.67810
Cl         2.24250       -1.80650        3.03780
Cl        -0.05440       -1.43850        1.32630
Cl         2.59090       -1.29680        0.23850
