20
TSA8_9_CCl3_I_CHF2
C          1.75650       -2.14220        0.47630
C          3.10150       -2.29140        1.19840
C          1.85130       -1.49880       -0.95750
H          1.21170       -1.38820        1.08440
I          5.04360       -1.97170        0.38650
C          0.93650       -3.48970        0.62730
C         -0.54800       -3.32800        0.35910
C         -1.31530       -2.49880        1.07670
O          3.08930       -2.60900        2.37770
C          1.47570       -4.69790       -0.16990
H          1.00050       -3.78840        1.69790
H         -1.02360       -3.91260       -0.42430
H         -0.90180       -1.90310        1.88380
H         -2.37540       -2.41890        0.86070
Cl         2.84070       -2.40560       -2.13840
Cl         0.24770       -1.25240       -1.70010
Cl         2.55310        0.14080       -0.83170
F          1.25200       -4.56700       -1.52640
F          2.82240       -4.90030        0.06970
H          0.93130       -5.61010        0.15680
