20
TSA8_9_CCl3_I_CHF2
C          1.40370       -2.01360        0.01620
C          1.77040       -1.27790        1.36190
C          2.32000       -1.60520       -1.18720
H          0.39800       -1.64160       -0.27810
I          3.80520       -1.45830        2.03980
C          1.27500       -3.52900        0.36580
C          0.21100       -3.70300        1.48130
C         -0.15750       -2.38580        2.18200
O          0.98080       -1.62070        2.50100
C          0.96040       -4.50960       -0.78190
H          2.24760       -3.84880        0.79850
H         -0.74450       -4.13470        1.10810
H         -0.70840       -2.62850        3.11430
H         -0.85350       -1.77600        1.56430
Cl         3.94050       -2.35880       -1.17310
Cl         1.55400       -2.00950       -2.75060
Cl         2.52810        0.16980       -1.22810
F         -0.20870       -4.15250       -1.43060
F          1.99960       -4.58430       -1.68810
H          0.83520       -5.53150       -0.36280
