23
TSA8_9_CCl3_CCl3_Me
C          1.31910       -2.22640        0.36970
C          1.52010       -1.19500        1.58480
C          2.39570       -2.22040       -0.76640
H          0.41300       -1.87690       -0.17200
C          2.89740       -1.02690        2.31670
C          0.94110       -3.60860        0.99650
C         -0.35040       -3.45020        1.83560
C         -0.62880       -1.99240        2.21880
O          0.55190       -1.35440        2.63160
C          0.76130       -4.79670        0.04250
H          1.75670       -3.90020        1.68120
H         -1.26050       -3.80500        1.30290
H         -1.36860       -1.97660        3.04560
H         -1.09420       -1.42190        1.38420
Cl         3.92430       -3.01550       -0.29660
Cl         1.81190       -3.05050       -2.23970
Cl         2.69030       -0.55500       -1.34330
Cl         3.46000       -2.52520        3.10200
Cl         4.22100       -0.35600        1.33550
Cl         2.69990        0.18090        3.62030
H          1.71110       -5.03420       -0.47650
H         -0.04070       -4.59110       -0.69840
H          0.48330       -5.70450        0.62030
