17
TSA8_9_Br_I_CBr3
C          3.26520       -0.29930        1.57970
C          1.81080        0.09490        1.51530
Br         3.84980       -0.70390       -0.23590
H          3.81990        0.60170        1.90850
I          1.21390        2.04310        2.07100
C          3.49720       -1.44000        2.62230
C          2.81620       -2.72270        2.18220
C          1.81400       -3.26980        2.87820
O          0.96280       -0.69590        1.13270
C          4.99040       -1.71460        2.98350
H          3.03390       -1.08060        3.57010
H          3.14840       -3.21770        1.27470
H          1.44760       -2.81170        3.79140
H          1.35250       -4.18840        2.53160
Br         5.08320       -2.99180        4.44780
Br         6.06730       -2.45390        1.54190
Br         5.87280       -0.10590        3.62650
