25
TSA8_9_CHF2_NH2_Et
C          1.86540       -0.10110       -0.11720
C          1.54560       -1.14000       -0.94460
C          1.85940        1.40460       -0.27320
H          2.17860       -0.37920        0.88660
N          1.62130       -2.44730       -0.39230
C          3.61260       -0.40280       -4.48920
C          2.92830       -0.00650       -3.40490
C          1.44040       -0.20810       -3.28560
O          1.16980       -1.09240       -2.26080
C          5.10660       -0.24900       -4.58480
H          3.09160       -0.87380       -5.31830
H          3.45670        0.44730       -2.57270
H          1.03850       -0.65820       -4.21760
H          0.88200        0.73280       -3.19150
F          3.14630        1.88610       -0.12260
F          1.33270        1.89150       -1.43600
H          1.23500        1.81720        0.54610
H          1.40330       -3.26620       -0.98090
H          1.91110       -2.61200        0.58280
C          5.53940        1.21480       -4.54810
H          5.45140       -0.69520       -5.54250
H          5.58700       -0.80200       -3.74850
H          5.08080        1.76980       -5.39350
H          6.64410        1.27360       -4.63750
H          5.23980        1.69130       -3.59100
