17
TSA8_9_OH_NH2_Cl
C          2.85600        1.08280       -0.51460
C          1.48160        1.35380       -1.08970
O          2.73260        0.12960        0.51200
H          3.47020        0.66430       -1.34790
N          1.23340        1.15410       -2.40720
C          3.62040        2.33410       -0.00330
C          3.02880        3.00810        1.21680
C          1.91720        3.74800        1.18110
O          0.57210        1.71790       -0.36080
Cl         5.28930        1.83190        0.40510
H          3.71880        3.08140       -0.82070
H          3.55180        2.93170        2.16630
H          1.37160        3.91140        0.25990
H          1.55690        4.22330        2.08790
H          3.51840       -0.47420        0.45550
H          0.29220        1.32380       -2.79200
H          1.97400        0.83210       -3.04690
