17
TSA8_9_OH_NH2_Cl
C          1.79690        0.10290       -0.13040
C          1.50420        1.10860       -0.98320
O          2.04600        0.30510        1.17990
H          1.82000       -0.91910       -0.50170
N          1.22420        0.79180       -2.33720
C          4.22610        4.19340        0.14790
C          3.52610        3.06150        0.29150
C          2.02770        3.07240        0.44780
O          1.44220        2.42780       -0.62650
Cl         5.96860        4.14130       -0.06190
H          3.73210        5.16040        0.14910
H          4.04640        2.10850        0.27700
H          1.65450        4.11780        0.45690
H          1.72000        2.62440        1.41360
H          2.22110       -0.44300        1.76800
H          1.00690        1.54350       -3.00540
H          1.25660       -0.18030       -2.67870
