23
TSA8_9_CCl3_NH2_OMe
C          1.36310       -0.14820       -0.15770
C          1.52210        1.18940       -0.19810
C          1.49340       -0.95840        1.11330
H          1.14730       -0.67600       -1.08290
N          1.40210        1.87400       -1.44110
C          4.78230        3.16150        1.80780
C          3.49210        2.91980        2.10410
C          2.39210        3.08460        1.09830
O          1.77890        1.85660        0.95760
O          5.79640        2.98640        2.70010
H          5.04380        3.50260        0.81120
H          3.20610        2.57450        3.09210
H          2.79380        3.46280        0.13550
H          1.65820        3.81830        1.49270
Cl         0.29270       -0.44430        2.32900
Cl         1.22160       -2.68300        0.75920
Cl         3.13270       -0.78710        1.79840
H          1.45590        2.89910       -1.49950
H          1.20820        1.35470       -2.31100
C          5.66380        2.50670        3.98820
H          6.66370        2.46500        4.46620
H          5.23730        1.48020        3.97210
H          5.01230        3.17940        4.58560
