23
TSA8_9_CCl3_NH2_OMe
C          2.73860        0.70430        0.83380
C          1.78450        1.49820       -0.09640
C          1.94810       -0.40610        1.60880
H          3.46120        0.14030        0.20290
N          2.48450        2.18260       -1.18310
C          3.56290        1.73240        1.66690
C          2.64150        2.75210        2.34930
C          1.71650        3.37640        1.29980
O          0.94560        2.39030        0.62870
O          4.39350        1.07510        2.60660
H          4.18140        2.29010        0.92130
H          2.05770        2.29120        3.16580
H          2.29780        3.99030        0.57580
H          1.02710        4.07670        1.81530
Cl         0.64210        0.17960        2.67680
Cl         1.17670       -1.50100        0.42530
Cl         3.03490       -1.43460        2.58340
H          1.76850        2.64610       -1.78690
H          2.96060        1.46230       -1.77120
C          5.44130        1.92240        3.02720
H          6.11060        2.19160        2.18120
H          6.05820        1.37040        3.76640
H          5.05160        2.82630        3.54470
