21
TSA8_9_OMe_CCl3_Br
C          1.32080       -0.08680       -1.41280
C          2.32100       -1.21140       -1.24650
O          1.99620        1.14290       -1.18490
H          0.51990       -0.29480       -0.66350
C          2.06890       -2.31390       -0.23520
C          0.70410       -0.15010       -2.83390
C         -0.72980        0.32420       -2.83440
C         -1.72370       -0.50230       -3.18240
O          3.31840       -1.24390       -1.95520
Br         1.73840        0.86470       -4.13770
H          0.69960       -1.20770       -3.17610
H         -0.97410        1.34080       -2.54100
H         -1.52240       -1.52850       -3.48070
H         -2.75270       -0.16580       -3.16810
C          1.22250        2.04290       -0.43680
H          0.34920        2.39810       -1.02020
H          1.84550        2.93440       -0.21880
H          0.92400        1.61490        0.54720
Cl         3.34500       -3.56200       -0.26760
Cl         2.00110       -1.62940        1.40850
Cl         0.51330       -3.11780       -0.58990
