21
TSA8_9_Me_CN_CH2F
C          1.54900       -0.38780       -1.84560
C          2.51020       -1.45840       -1.37690
C          2.16240        1.00110       -1.60420
H          0.64650       -0.47000       -1.19750
C          2.12500       -2.33350       -0.29330
C          1.08630       -0.62440       -3.31990
C         -0.23650        0.06290       -3.58210
C         -1.38480       -0.48790       -3.16870
O          3.58660       -1.62580       -1.92670
C          2.10780       -0.24190       -4.41160
H          0.89860       -1.71550       -3.44580
H         -0.27340        0.99840       -4.13270
H         -1.38770       -1.43800       -2.64000
H         -2.33270       -0.00250       -3.37200
H          1.46070        1.80190       -1.91560
H          3.11830        1.11580       -2.15940
H          2.39090        1.13340       -0.52510
N          1.81060       -3.02510        0.57750
F          2.32440        1.12520       -4.45640
H          1.71110       -0.54870       -5.40360
H          3.07340       -0.76250       -4.25910
