21
TSA8_9_Me_CN_CH2F
C          1.96380       -0.43100       -2.18810
C          1.00330       -1.20790       -1.23500
C          2.01210        1.04580       -1.74310
H          2.99670       -0.83900       -2.09070
C          1.74580       -2.01340       -0.25440
C          1.47820       -0.65570       -3.65360
C         -0.03530       -0.39760       -3.74100
C         -0.78070       -1.19350       -2.64890
O          0.09830       -2.03790       -1.93190
C          2.23260        0.07020       -4.77340
H          1.62560       -1.74030       -3.85950
H         -0.28850        0.68250       -3.65460
H         -1.54060       -1.82410       -3.15100
H         -1.33440       -0.51820       -1.95480
H          1.12910        1.61840       -2.09270
H          2.92940        1.53990       -2.12640
H          2.03750        1.11940       -0.63330
N          2.33760       -2.65830        0.50280
F          2.05680        1.43990       -4.70860
H          1.83400       -0.28670       -5.75100
H          3.31410       -0.17490       -4.74060
