20
TSA8_9_CCl3_Br_CHF2
C          1.83780       -0.02940       -0.05200
C          1.14570       -1.14950       -0.34250
C          2.19160        1.11660       -0.98170
H          2.17490        0.08680        0.97440
Br         0.83170       -2.39360        1.09220
C         -0.28080       -3.55880       -4.08040
C         -0.45690       -2.42450       -3.38050
C         -0.23820       -2.38160       -1.89620
O          0.68010       -1.39710       -1.59410
C         -0.50270       -3.60700       -5.56210
H          0.02550       -4.46970       -3.57530
H         -0.77560       -1.51860       -3.88720
H          0.11700       -3.36640       -1.52390
H         -1.20300       -2.13650       -1.39950
Cl         1.64090        0.96950       -2.67600
Cl         1.47890        2.60440       -0.31430
Cl         3.96080        1.30430       -1.00040
F         -1.80360       -3.24550       -5.85930
F          0.37330       -2.74890       -6.20080
H         -0.32360       -4.64020       -5.92810
