22
TSA8_9_CH2F_OMe_OH
C          2.74030       -0.68100        1.09660
C          1.41070       -0.51010        1.82660
C          2.49930       -0.62260       -0.42500
H          3.39580        0.17570        1.35050
O          1.19540        0.46170        2.75470
C          3.53980       -1.94630        1.53750
C          2.89240       -3.28010        1.22420
C          1.82870       -3.75160        1.88160
O          0.47630       -1.24460        1.54630
O          4.79760       -1.90750        0.91000
H          3.69810       -1.87810        2.64070
H          3.34230       -3.91200        0.46340
H          1.36630       -3.19450        2.68790
H          1.42510       -4.72620        1.62820
F          3.69430       -0.64210       -1.12200
H          1.96850        0.31850       -0.68490
H          1.87520       -1.47980       -0.75700
C          2.13380        1.35160        3.23110
H          1.66150        1.99710        3.99950
H          2.50580        2.00090        2.41080
H          2.97660        0.80130        3.70220
H          5.43390       -2.39830        1.49420
