22
TSA8_9_CH2F_OMe_OH
C          1.73520       -0.04770       -0.01900
C          1.63020       -0.19070        1.32520
C          1.69780       -1.06790       -1.11660
H          1.87510        0.97170       -0.38220
O          1.69280        0.95620        2.04750
C          4.26810       -3.12380        2.64560
C          3.47980       -2.54560        1.72960
C          1.98130       -2.62490        1.80080
O          1.47860       -1.36140        2.02440
O          5.61080       -3.00380        2.58380
H          3.83250       -3.69430        3.46190
H          3.92580       -1.97170        0.92170
H          1.66890       -3.26060        2.65910
H          1.54970       -3.11850        0.92050
F          2.91060       -1.06280       -1.77680
H          0.90130       -0.78320       -1.83450
H          1.47530       -2.09110       -0.80930
C          2.19710        0.99800        3.32730
H          2.07040        2.01890        3.74090
H          3.28420        0.76670        3.29430
H          1.68640        0.26820        3.99190
H          6.05140       -2.48060        1.89800
