22
TSA8_9_CH2F_OMe_OH
C          2.83480       -0.70240        0.83860
C          1.52100       -0.70090        1.67790
C          2.50210       -0.99910       -0.63370
H          3.30920        0.30320        0.86580
O          1.16420        0.56480        2.20120
C          3.79900       -1.72910        1.46690
C          3.13500       -3.11090        1.60330
C          1.64590       -2.97630        1.97620
O          1.40860       -1.75120        2.63690
O          5.00490       -1.81340        0.75510
H          4.00380       -1.35400        2.49780
H          3.21280       -3.73610        0.68750
H          1.34970       -3.82890        2.62150
H          1.00020       -3.04950        1.07000
F          3.64540       -0.94900       -1.41110
H          1.79300       -0.23320       -1.01420
H          2.03070       -1.99530       -0.75520
C          1.94100        0.86720        3.34090
H          1.67580        1.88910        3.68070
H          3.02850        0.88100        3.11430
H          1.71150        0.17900        4.18340
H          5.67580       -2.20180        1.37550
