24
TSA8_9_CBr3_OMe_Me
C          2.00530       -1.90850       -1.15830
C          0.62300       -2.51460       -0.88820
C          1.87960       -0.34880       -1.27580
H          2.66620       -2.08220       -0.29130
O          0.30290       -3.19580        0.24840
C          2.64520       -2.61950       -2.40250
C          4.06330       -2.16460       -2.65370
C          4.43600       -1.59390       -3.80380
O         -0.25550       -2.36850       -1.72390
C          2.69170       -4.14740       -2.21960
H          2.01540       -2.41590       -3.29690
H          4.80790       -2.31370       -1.87610
H          3.72500       -1.42960       -4.60750
H          5.46690       -1.28560       -3.94390
Br         0.95370        0.37150        0.27900
Br         3.59350        0.57080       -1.27870
Br         0.90500        0.22800       -2.86050
C          1.14640       -3.72570        1.20680
H          0.99460       -3.19180        2.16750
H          2.21540       -3.69840        0.93040
H          0.88820       -4.79440        1.35270
H          1.67280       -4.57080       -2.10000
H          3.29830       -4.41990       -1.32930
H          3.14060       -4.62490       -3.11740
