20
TSA8_9_NO2_H_OMe
C          2.77080        1.59240       -0.06730
C          1.63990        0.72290       -0.58310
N          3.26530        1.01370        1.17650
H          3.58230        1.55020       -0.82550
H          1.83520       -0.32380       -0.79340
C          2.35380        3.09260        0.11630
C          1.84890        3.71750       -1.17420
C          0.60650        4.19780       -1.29130
O          0.51230        1.15770       -0.75770
O          3.37130        3.90510        0.69860
H          1.51950        3.09280        0.85330
H          2.50500        3.78120       -2.03580
H          0.28140        4.63620       -2.22920
H         -0.09310        4.16090       -0.46200
O          3.69960       -0.09930        1.17970
O          3.24470        1.69290        2.30460
C          4.60430        3.86220        0.00590
H          5.24120        4.68460        0.39070
H          4.49820        4.04530       -1.08220
H          5.14700        2.91600        0.21140
