20
TSA8_9_NO2_H_OMe
C          1.91810        0.03890       -0.14140
C          1.39490        0.62620       -1.25260
N          2.13520        0.56620        1.17000
H          2.20610       -1.00230       -0.27970
H          1.32680       -0.03060       -2.11420
C          2.64560        4.73230       -0.01890
C          2.38540        3.55990       -0.62630
C          0.96910        3.07200       -0.77690
O          0.92840        1.89030       -1.48570
O          3.90130        5.24010        0.12610
H          1.81910        5.31430        0.37560
H          3.18990        2.95310       -1.02950
H          0.41800        3.83340       -1.36810
H          0.41800        2.98100        0.17720
O          2.60940       -0.15100        1.99800
O          1.79300        1.77940        1.51960
C          5.06400        4.67630       -0.35900
H          5.92150        5.32780       -0.09310
H          5.01500        4.59190       -1.46570
H          5.22510        3.67450        0.09330
