23
TSA8_9_OMe_CBr3_NH2
C          1.06100        1.51680        0.74190
C          2.30080        1.69470       -0.11360
O          1.39910        0.88610        1.97000
H          0.30660        0.94210        0.15120
C          2.34480        1.18480       -1.54500
C          0.41350        2.89050        1.03710
C         -0.95220        2.70600        1.66100
C         -2.06010        3.15480        1.06040
O          3.26130        2.29250        0.34750
N          1.26470        3.70190        1.91300
H          0.29680        3.42770        0.06850
H         -1.03880        2.19430        2.61500
H         -2.01280        3.66970        0.10470
H         -3.02960        3.00780        1.52350
C          1.15090       -0.49950        1.92640
H          1.39950       -0.92680        2.91930
H          1.81010       -1.00050        1.18950
H          0.07540       -0.71370        1.74200
Br         2.12870       -0.73900       -1.61890
Br         0.92260        1.99900       -2.58400
Br         4.02530        1.61840       -2.42040
H          1.34940        3.25470        2.85630
H          0.82950        4.64450        2.04160
