23
TSA8_9_OMe_CBr3_NH2
C          1.40650        0.12540       -0.05290
C          1.36310        1.23110       -0.82240
O          1.34770        0.23010        1.29530
H          1.49280       -0.86140       -0.49240
C          1.44420        1.19220       -2.34110
C         -0.05820        4.49900        2.15390
C          0.08170        3.26230        1.65530
C          0.05510        2.99700        0.17730
O          1.25740        2.44740       -0.22620
N         -0.04260        4.72620        3.55260
H         -0.18850        5.34760        1.48760
H          0.21000        2.42180        2.33030
H         -0.10460        3.93810       -0.39220
H         -0.79530        2.31640       -0.04550
C          1.37170       -0.87340        2.11810
H          1.32340       -0.54140        3.17540
H          2.31100       -1.44650        1.96390
H          0.49740       -1.52580        1.90610
Br         1.64330       -0.57500       -3.14060
Br        -0.16010        1.97400       -3.09700
Br         2.96140        2.25380       -2.90970
H          0.06980        3.94710        4.21820
H         -0.15270        5.68330        3.91610
