19
TSA8_9_CCl3_NO2_I
C          2.69340       -0.63490       -0.66580
C          1.26070       -1.21180       -0.81530
C          2.62890        0.93490       -0.73030
H          3.06520       -0.86030        0.35780
N          1.08910       -2.52690       -0.21330
C          3.60220       -1.41180       -1.66280
C          3.04630       -1.34740       -3.07830
C          1.59530       -1.84110       -3.07190
O          0.76900       -1.13290       -2.15320
I          5.70370       -0.98030       -1.66090
H          3.57510       -2.48290       -1.36210
H          3.13040       -0.32790       -3.49550
H          1.57210       -2.93210       -2.87660
H          1.18360       -1.70680       -4.09360
Cl         1.97950        1.62080       -2.24720
Cl         1.55430        1.51760        0.57470
Cl         4.20110        1.71010       -0.41430
O          0.51920       -3.40010       -0.79490
O          1.39460       -2.69880        1.05410
