20
TSA8_9_CBr3_CCl3_Cl
C          1.93510       -0.03670       -0.10980
C          1.30290       -0.67830       -1.12790
C          2.06620        1.46040        0.12470
H          2.42250       -0.61400        0.66360
C          1.28150       -2.22030       -1.19800
C         -0.23680        0.87570       -5.26530
C         -0.49020        0.86670       -3.95170
C         -0.16240       -0.31740       -3.08980
O          0.70660        0.08070       -2.09300
Cl        -0.63610        2.28330       -6.23700
H          0.21630        0.01910       -5.75380
H         -0.94580        1.73680       -3.48800
H          0.28640       -1.12210       -3.70540
H         -1.10870       -0.68050       -2.64040
Br         1.29870        1.86030        1.85610
Br         3.95280        1.88940        0.19400
Br         1.25250        2.68720       -1.15180
Cl         2.10080       -2.76540       -2.68410
Cl         2.11470       -3.06400        0.14750
Cl        -0.38950       -2.84200       -1.18570
