20
TSA8_9_CBr3_CCl3_Cl
C          1.68680        0.43670       -1.78410
C          0.72330       -0.66990       -1.26690
C          1.59650        1.68210       -0.82830
H          2.73610        0.08870       -1.67940
C          1.16260       -2.15780       -1.31130
C          1.41390        0.62500       -3.30970
C         -0.06980        0.81350       -3.60420
C         -0.86250       -0.33450       -2.96880
O         -0.64520       -0.42410       -1.57150
Cl         2.37290        1.88760       -4.12420
H          1.70840       -0.31180       -3.82100
H         -0.43290        1.79250       -3.24450
H         -0.64440       -1.29790       -3.46840
H         -1.94150       -0.14390       -3.14520
Br         2.02290        1.11680        0.98530
Br         2.92060        3.04930       -1.21730
Br        -0.13590        2.55730       -0.70740
Cl         1.45520       -2.81040       -2.94470
Cl         2.66550       -2.36150       -0.37570
Cl        -0.08160       -3.16270       -0.52530
