20
TSA8_9_Me_F_CH2F
C          1.44110       -2.38860        0.39630
C          1.39640       -1.12450        1.22310
C          1.31130       -2.03370       -1.09570
H          2.44850       -2.83770        0.54400
F          2.47740       -0.76720        1.96450
C          0.39100       -3.42560        0.90100
C         -1.03370       -2.93170        0.74710
C         -1.83520       -2.74530        1.80070
O          0.40620       -0.40940        1.22690
C          0.53580       -4.78210        0.19340
H          0.61130       -3.60530        1.97860
H         -1.42300       -2.72670       -0.24550
H         -1.49060       -2.93960        2.81170
H         -2.85080       -2.39300        1.65340
H          1.43240       -2.93290       -1.73240
H          2.11230       -1.31830       -1.38120
H          0.33130       -1.56200       -1.31650
F         -0.32870       -5.70510        0.75640
H          1.57330       -5.16150        0.30910
H          0.30340       -4.70180       -0.88850
