19
TSA8_9_NO2_Me_H
C          2.66300        1.58740        0.18820
C          1.31800        1.66550       -0.59790
N          2.56150        0.59240        1.24240
H          3.49770        1.29970       -0.49360
C          1.45580        1.19190       -2.04130
C          3.01440        2.97380        0.75310
C          1.83340        3.61170        1.49580
C          0.50330        3.29580        0.78830
O          0.73470        2.96150       -0.56530
H          3.93520        2.96520        1.37410
H          3.21640        3.62760       -0.12420
H          1.75940        3.31510        2.56350
H         -0.17130        4.17310        0.86200
H         -0.03280        2.46410        1.30410
O          3.29960       -0.34550        1.24790
O          1.65110        0.69820        2.18720
H          2.14550        1.86220       -2.59770
H          0.46200        1.20600       -2.53560
H          1.85110        0.15480       -2.06640
