21
TSA8_9_CH2F_CCl3_CN
C          1.61080       -0.11580        0.02030
C          1.44250       -1.47970        0.11610
C          1.68220        0.85320       -1.14660
H          1.77050        0.41290        0.95440
C          1.60520       -2.10160        1.50620
C          1.17280       -2.36730       -4.51370
C          1.43910       -2.60330       -3.22400
C          0.53550       -2.15340       -2.11580
O          1.16720       -2.35960       -0.90250
C          2.15350       -2.76420       -5.49370
H          0.26500       -1.85080       -4.82990
H          2.36320       -3.11630       -2.96630
H         -0.41990       -2.72510       -2.15500
H          0.24110       -1.10950       -2.23300
F          2.97490        1.33710       -1.15030
H          1.00850        1.72990       -0.98920
H          1.49600        0.47810       -2.16240
Cl         3.11090       -1.55670        2.30890
Cl         0.22710       -1.66480        2.54600
Cl         1.70710       -3.88560        1.43580
N          2.96320       -3.09680       -6.25070
