19
TSA8_9_NH2_H_CH2F
C          2.32470       -2.12380        1.24310
C          1.21860       -1.72130        0.25060
N          3.55470       -1.37290        0.96720
H          1.99600       -1.87510        2.27660
H          0.22700       -2.14450        0.53060
C          2.53130       -3.65440        1.13780
C          2.78200       -4.05180       -0.32390
C          1.65040       -3.48550       -1.19500
O          1.56890       -2.07390       -1.07800
C          3.63350       -4.18170        2.06700
H          1.58020       -4.14180        1.45210
H          3.75760       -3.66020       -0.68250
H          0.67570       -3.96070       -0.94070
H          1.86160       -3.74190       -2.25380
H          3.37310       -0.35410        1.11980
H          3.86330       -1.49570       -0.02370
F          4.87100       -3.66040        1.73230
H          3.68500       -5.28900        1.99320
H          3.39980       -3.91460        3.11960
