19
TSA8_9_CN_Me_CN
C          2.54620        1.48790       -0.10030
C          1.35830        1.51840       -1.08200
C          2.12460        0.56050        0.99860
H          3.39280        0.99410       -0.60990
C          1.30590        0.64120       -2.30050
C          2.89410        2.94420        0.43050
C          2.19440        3.11730        1.74410
C          0.90820        3.43340        1.76460
O          0.37840        2.20920       -0.85820
C          4.31250        3.29900        0.63590
H          2.56410        3.70160       -0.31690
H          2.65340        2.71060        2.64710
H          0.41540        3.74820        0.85760
H          0.34050        3.31050        2.67320
N          1.74020       -0.10280        1.85470
H          2.10820        0.91240       -3.01130
H          0.32080        0.75790       -2.81210
H          1.39730       -0.42490       -2.00260
N          5.39410        3.66910        0.82630
