19
TSA8_9_CN_Me_CN
C          2.81860        1.42990       -0.00280
C          1.40380        1.51510       -0.66170
C          2.64240        0.60580        1.20910
H          3.55030        0.91140       -0.66140
C          1.39390        1.07630       -2.12820
C          3.26810        2.88590        0.29200
C          2.27590        3.52590        1.25900
C          0.83810        3.22130        0.82030
O          0.79480        2.80230       -0.53360
C          4.63720        3.13290        0.76320
H          3.21390        3.42850       -0.67660
H          2.41460        3.14340        2.30040
H          0.26160        4.15890        0.94980
H          0.36480        2.45470        1.47630
N          2.48130       -0.02060        2.16960
H          2.03920        1.72690       -2.75700
H          0.35390        1.12050       -2.51520
H          1.74420        0.02550       -2.21180
N          5.69770        3.41440        1.13280
