22
TSA8_9_CBr3_NH2_Me
C          1.38210       -0.99060        1.80660
C          2.69980       -1.12530        2.58680
C          1.43100       -1.47580        0.30600
H          1.23000        0.10750        1.69510
N          3.73560       -1.90820        2.19020
C          0.21610       -1.51020        2.73810
C         -1.15950       -1.41080        2.12280
C         -2.10020       -0.58680        2.59340
O          2.81030       -0.50740        3.63690
C          0.40440       -2.94640        3.25960
H          0.24250       -0.85960        3.64270
H         -1.40660       -2.04820        1.28080
H         -1.90940        0.06340        3.44050
H         -3.07800       -0.56190        2.12310
Br        -0.07200       -0.81140       -0.73950
Br         2.94600       -0.66810       -0.62050
Br         1.51260       -3.39960        0.03320
H          4.58910       -1.96220        2.76520
H          3.70910       -2.47610        1.33710
H          1.37070       -3.05600        3.79400
H          0.35100       -3.69720        2.45180
H         -0.40080       -3.18590        3.98770
