17
TSA8_9_CH2F_Cl_Br
C          1.75490       -1.89570       -0.60500
C          1.13930       -1.34270        0.69520
C          1.51570       -0.89060       -1.74860
H          2.85600       -1.99210       -0.48450
Cl         1.74110       -2.14240        2.18420
C          1.15020       -3.29280       -0.87160
C         -0.37690       -3.21910       -0.86040
C         -0.83440       -2.58170        0.45840
O         -0.28030       -1.28580        0.63900
Br         1.78940       -4.09970       -2.52020
H          1.45970       -3.97450       -0.04930
H         -0.75020       -2.62170       -1.71810
H         -0.59480       -3.24220        1.32000
H         -1.94020       -2.49260        0.43420
F          2.11510        0.31850       -1.44170
H          0.43540       -0.70820       -1.92020
H          1.96390       -1.26230       -2.69260
