23
TSA8_9_Br_Et_CCl3
C          3.20810        0.62270       -1.05740
C          1.77520        0.21440       -1.33730
Br         3.31510        0.85800        0.87300
H          3.87790       -0.22140       -1.32150
C          1.43180       -1.16560       -1.84540
C          3.61700        1.89550       -1.87500
C          3.30580        1.65910       -3.34390
C          2.40940        2.39870       -4.00660
O          0.87030        1.00450       -1.10900
C          5.12150        2.31040       -1.74990
H          2.99820        2.74610       -1.50950
H          3.82280        0.86770       -3.87750
H          2.21280        2.20080       -5.05500
H          1.86760        3.20100       -3.51490
C          2.03580       -1.45410       -3.21710
H          0.32730       -1.26740       -1.92580
H          1.79730       -1.91950       -1.11590
H          1.66190       -0.72200       -3.96360
H          1.73980       -2.47360       -3.54260
H          3.14390       -1.41370       -3.18140
Cl         6.22110        0.99160       -2.25130
Cl         5.46000        3.72480       -2.79230
Cl         5.59070        2.82330       -0.10790
