24
TSA8_9_CBr3_OMe_CBr3
C          3.21560       -1.40620       -1.55720
C          1.82460       -2.04970       -1.30160
C          3.27680        0.12670       -1.18150
H          3.93310       -1.91470       -0.87900
O          1.42880       -2.02870        0.04270
C          3.62100       -1.73600       -3.04990
C          2.43600       -2.38390       -3.82370
C          1.11730       -1.65670       -3.51920
O          0.81450       -1.50780       -2.13160
C          4.86320       -2.68240       -3.17350
H          3.86160       -0.78350       -3.56800
H          2.28960       -3.43660       -3.50090
H          0.29190       -2.21240       -4.01160
H          1.16520       -0.65280       -3.98560
Br         2.92890        0.41540        0.70970
Br         5.03030        0.89970       -1.46900
Br         2.04800        1.26860       -2.16110
C          1.32990       -3.36700        0.45760
H          1.02610       -3.38170        1.52430
H          2.31340       -3.88540        0.39060
H          0.54400       -3.90950       -0.11530
Br         6.48280       -1.95170       -2.40040
Br         4.57900       -4.40740       -2.30940
Br         5.27880       -3.01550       -5.04500
