19
TSA8_9_CCl3_CN_CN
C          1.51240        1.44120        1.04730
C          1.76600        2.24270       -0.22930
C          2.22630        0.03140        1.16410
H          0.46670        1.15920        0.87130
C          2.10820        1.61000       -1.47980
C          1.37680        2.35590        2.33180
C          0.47400        1.69020        3.34400
C         -0.80970        1.46190        3.03510
O          1.30070        3.36950       -0.30920
C          2.61840        2.83190        2.97580
H          0.84510        3.29150        2.05960
H          0.85260        1.37830        4.31410
H         -1.21350        1.78490        2.07680
H         -1.47020        0.95750        3.72350
Cl         2.24240       -0.66570        2.81110
Cl         1.33280       -1.16050        0.16520
Cl         3.92340        0.02540        0.61250
N          2.38670        1.11180       -2.48600
N          3.53520        3.25120        3.53940
