19
TSA8_9_CCl3_CN_CN
C          1.56750        0.10820       -0.00050
C          1.27450        1.48850       -0.07980
C          1.72140       -1.02110        1.03490
H          1.53200       -0.36610       -0.99070
C          1.39330        2.07530       -1.37340
C          0.95510        3.65640        3.79680
C          1.14760        2.51200        3.13490
C          0.20200        2.09910        2.04790
O          0.84310        2.38920        0.86680
C          2.03780        4.22140        4.55870
H          0.04650        4.23490        3.67040
H          2.08010        1.96880        3.25820
H         -0.72760        2.68740        2.08550
H         -0.14740        1.05140        2.07440
Cl         1.47600       -0.72280        2.76490
Cl         0.86830       -2.54800        0.64970
Cl         3.43300       -1.39080        0.80720
N          1.52170        2.57970       -2.40240
N          2.92190        4.65620        5.16480
