23
TSA8_9_OMe_NO2_CHF2
C          1.49690        0.00020       -0.03850
C          1.30850        1.31840        0.12740
O          1.62070       -0.79670        1.04790
H          1.51920       -0.43470       -1.03470
N          1.13000        2.18990       -0.99130
C         -0.16820        2.31370        4.40370
C         -0.15770        1.70020        3.21200
C          0.18030        2.42830        1.94400
O          1.27930        1.80790        1.39010
C         -0.46730        1.55690        5.66340
H          0.05100        3.37530        4.47430
H         -0.38150        0.63790        3.14920
H          0.41960        3.49500        2.14090
H         -0.69610        2.38260        1.25860
C          1.67340       -2.16690        0.95650
H          1.75970       -2.59550        1.97620
H          2.55240       -2.48020        0.35450
H          0.74070       -2.55140        0.48880
O          0.99280        3.36390       -0.81560
O          1.15650        1.72370       -2.22080
F         -1.72230        0.98130        5.58820
F          0.48250        0.56870        5.85190
H         -0.43760        2.25070        6.52910
