19
TSA8_9_CBr3_NO2_H
C          1.08840       -1.26500       -0.22640
C          1.74300       -1.32040        1.18150
C          1.96560       -0.63370       -1.33990
H          0.22480       -0.57580       -0.09150
N          2.94830       -2.11730        1.24380
C          0.51350       -2.64910       -0.59590
C         -0.06200       -3.34740        0.64000
C         -0.32970       -2.38220        1.79850
O          0.84740       -1.70050        2.23060
H         -0.26880       -2.51390       -1.37300
H          1.28730       -3.33180       -1.00240
H         -0.91240       -4.01260        0.37830
H         -0.70620       -2.98470        2.65070
H         -1.12070       -1.64960        1.52820
Br         0.92400       -0.37920       -2.96050
Br         2.58370        1.12350       -0.78900
Br         3.52340       -1.69780       -1.81680
O          3.98610       -1.58920        1.50380
O          2.90100       -3.42570        1.11220
