24
TSA8_9_OMe_CCl3_Me
C          2.56010        1.17730        0.36930
C          1.34460        1.44490       -0.49870
O          2.22760        0.18880        1.33570
H          3.38910        0.86340       -0.31080
C          1.40410        1.26560       -2.00270
C          3.04560        2.46790        1.07910
C          2.03900        2.95480        2.10020
C          1.45590        4.15290        2.01190
O          0.30370        1.81160        0.02830
C          4.38850        2.23150        1.77900
H          3.21670        3.24730        0.30110
H          1.78320        2.30960        2.93680
H          1.68110        4.83030        1.19440
H          0.74080        4.46220        2.76780
C          2.96250       -0.99610        1.13220
H          4.05170       -0.81980        1.26950
H          2.74060       -1.43960        0.13870
H          2.64760       -1.73550        1.89690
Cl         2.65110        2.33580       -2.69360
Cl         1.80200       -0.42280       -2.40950
Cl        -0.15410        1.66400       -2.78170
H          5.15200        1.90390        1.04090
H          4.29700        1.45510        2.56840
H          4.74530        3.17460        2.24640
