19
TSA8_9_Cl_OH_OMe
C          2.94650       -1.33070        0.69820
C          1.48360       -1.60130        0.94690
Cl         3.11530        0.20950       -0.19800
H          3.42250       -1.18400        1.69280
O          1.03350       -1.70600        2.21520
C          3.74030       -2.47180        0.00600
C          3.28500       -2.80400       -1.40300
C          2.14980       -3.45370       -1.67450
O          0.69260       -1.66460        0.01750
O          5.09610       -2.05520       -0.05310
H          3.62770       -3.38210        0.64580
H          3.93680       -2.54900       -2.23420
H          1.48260       -3.78370       -0.88680
H          1.89230       -3.68430       -2.70310
H          0.09730       -1.85590        2.40820
C          5.96800       -3.15830        0.07800
H          6.00930       -3.49760        1.13550
H          6.98730       -2.83620       -0.21860
H          5.68950       -3.99450       -0.60240
