19
TSA8_9_Cl_OH_OMe
C          2.09800       -0.15590        0.12060
C          1.48510       -1.23630        0.65440
Cl         2.86200       -0.03110       -1.46030
H          2.11890        0.75780        0.70710
O          0.94010       -1.08610        1.87950
C          3.89810       -3.92220        0.25210
C          3.47380       -3.15630       -0.77090
C          2.00320       -2.98930       -1.04520
O          1.35930       -2.46140        0.05820
O          5.21040       -4.11020        0.56050
H          3.16080       -4.42100        0.87420
H          4.18010       -2.64630       -1.41690
H          1.57490       -3.99260       -1.25270
H          1.81420       -2.37250       -1.94560
H          0.49140       -1.82090        2.32100
C          6.28500       -3.54120       -0.09140
H          7.22280       -3.88260        0.39290
H          6.23180       -2.43380       -0.02070
H          6.29960       -3.85670       -1.15530
