19
TSA8_9_Cl_OH_OMe
C          3.06190       -1.40870        0.56840
C          1.51490       -1.47260        0.37830
Cl         3.76230       -0.37680       -0.71290
H          3.29970       -0.91580        1.53580
O          0.85360       -1.24650        1.59440
C          3.61860       -2.84370        0.54420
C          3.22270       -3.57720       -0.76790
C          1.85960       -3.07380       -1.27600
O          1.03620       -2.68970       -0.19760
O          4.97820       -2.92830        0.96700
H          3.04920       -3.37950        1.33550
H          3.92240       -3.44830       -1.61880
H          1.37030       -3.87360       -1.86900
H          1.98620       -2.21340       -1.97450
H          1.05530       -2.02270        2.17820
C          5.92040       -2.96190       -0.08200
H          6.93090       -2.84740        0.36100
H          5.79550       -2.12110       -0.79220
H          5.91030       -3.94800       -0.59320
