19
TSA8_9_NH2_I_CCl3
C          1.74310        0.03090        0.18760
C          1.39770       -0.91700        1.09500
N          1.95460       -0.15150       -1.20540
H          1.85740        1.04520        0.55770
I          1.12250       -0.25030        3.08170
C          3.52800       -4.41550       -0.33090
C          2.90750       -3.22520       -0.41270
C          1.42430       -3.08650       -0.16840
O          1.18410       -2.25370        0.90460
C          5.00940       -4.56170       -0.56430
H          2.94920       -5.30300       -0.08890
H          3.48810       -2.34150       -0.65580
H          0.99540       -4.08070        0.08120
H          0.86880       -2.74910       -1.06240
H          2.19940        0.66990       -1.77600
H          1.86610       -1.04120       -1.69750
Cl         5.48440       -6.27060       -0.39010
Cl         5.44000       -4.02390       -2.20900
Cl         5.92350       -3.60050        0.62770
