19
TSA8_9_NH2_I_CCl3
C          2.93330       -1.51160        0.20270
C          1.47730       -1.36730        0.74440
N          3.05570       -0.82260       -1.08330
H          3.63920       -1.02670        0.91000
I          1.43120       -0.41840        2.66190
C          3.28990       -3.01790        0.09490
C          2.22390       -3.75540       -0.74420
C          0.81180       -3.22480       -0.43930
O          0.78080       -2.60360        0.82780
C          4.74030       -3.34540       -0.35410
H          3.19100       -3.41560        1.13100
H          2.38790       -3.70770       -1.84170
H          0.09290       -4.06880       -0.47180
H          0.47300       -2.50740       -1.22380
H          2.86440        0.19690       -0.94720
H          2.36520       -1.19250       -1.77540
Cl         5.01420       -5.10900       -0.28060
Cl         5.09830       -2.81080       -2.02100
Cl         5.92570       -2.58630        0.74380
