23
TSA8_9_H_Et_CH2F
C          2.14640        1.77060       -1.38690
C          1.06950        1.24720       -2.30220
H          1.74130        1.72620       -0.35410
H          3.04330        1.11330       -1.42890
C          1.32240        0.01980       -3.14490
C          2.55890        3.22100       -1.73500
C          3.53690        3.75510       -0.70830
C          3.20300        3.90080        0.57910
O         -0.01130        1.81980       -2.34070
C          3.18580        3.28890       -3.13940
H          1.65860        3.87530       -1.72220
H          4.53820        4.04810       -1.01440
H          2.21270        3.63850        0.93730
H          3.92570        4.29460        1.28640
C          0.11050       -0.38800       -3.98340
H          1.58940       -0.82540       -2.47520
H          2.17890        0.22090       -3.82360
H         -0.75210       -0.62190       -3.32290
H          0.35570       -1.29270       -4.57840
H         -0.17180        0.43040       -4.67970
F          3.52280        4.59520       -3.44970
H          2.46790        2.92850       -3.90560
H          4.10030        2.65860       -3.18840
