23
TSA8_9_H_Et_CH2F
C          3.06940        1.53090       -1.98110
C          1.61840        1.01050       -1.73090
H          3.61900        1.56650       -1.01500
H          3.62830        0.83930       -2.64850
C          1.06470        0.31390       -2.98460
C          2.99020        2.95470       -2.54460
C          2.26580        3.86820       -1.53070
C          1.33180        3.06050       -0.61160
O          0.69390        2.03000       -1.33220
C          4.36460        3.51530       -2.92690
H          2.37390        2.91270       -3.46850
H          2.95980        4.42560       -0.86420
H          0.57630        3.74020       -0.16650
H          1.89580        2.62130        0.24380
C         -0.30050       -0.31420       -2.71650
H          1.76090       -0.49730       -3.28930
H          0.97450        1.03800       -3.82210
H         -0.22630       -1.05720       -1.89400
H         -0.65780       -0.83020       -3.63250
H         -1.04350        0.46380       -2.44060
F          5.19610        3.58010       -1.82180
H          4.25140        4.53360       -3.35640
H          4.83730        2.86440       -3.69300
