17
TSA8_9_H_Br_CCl3
C          1.82330       -0.04210       -0.06720
C          1.40940       -0.68340       -1.17190
H          2.35590        0.89850       -0.08840
H          1.61530       -0.46540        0.91000
Br         0.45470       -2.32680       -0.95840
C          3.40260        0.72100       -5.16230
C          3.37970        0.28040       -3.89360
C          2.40260        0.80930       -2.88480
O          1.61170       -0.23780       -2.44450
C          4.38090        0.18100       -6.17360
H          2.69700        1.48670       -5.47370
H          4.08230       -0.48430       -3.57290
H          1.74500        1.58400       -3.33480
H          2.98470        1.28430       -2.07430
Cl         4.13680        0.98640       -7.74430
Cl         6.05700        0.47970       -5.64290
Cl         4.13810       -1.57160       -6.39730
