18
TSA8_9_H_OH_CCl3
C          3.26370        1.54910       -0.12670
C          1.75810        1.72900       -0.46320
H          3.38080        0.81160        0.69630
H          3.79110        1.14240       -1.01550
O          1.63680        2.22280       -1.76390
C          3.81530        2.90930        0.33160
C          3.02850        3.37070        1.58510
C          1.64520        2.70030        1.67930
O          1.03840        2.60300        0.40950
C          5.34910        2.92440        0.55640
H          3.59090        3.63400       -0.48290
H          3.54960        3.15180        2.54170
H          1.00120        3.29090        2.36290
H          1.72490        1.68370        2.12850
H          1.14990        1.51400       -2.25570
Cl         5.88720        4.55430        1.04960
Cl         5.85700        1.75840        1.81330
Cl         6.21080        2.52070       -0.95440
