24
TSA8_9_CHF2_CBr3_OMe
C          2.99350       -0.20260       -1.48130
C          1.50750       -0.51990       -1.80210
C          3.06170        0.91120       -0.40790
H          3.46890       -1.05860       -0.95630
C          1.10710       -1.99220       -2.07110
C          3.81820        0.11310       -2.76250
C          2.92390        0.53270       -3.94380
C          1.64830        1.22250       -3.47880
O          0.82450        0.41810       -2.63880
O          4.54740       -1.04470       -3.13850
H          4.50830        0.95030       -2.49860
H          2.60570       -0.34810       -4.53070
H          1.06450        1.46840       -4.39020
H          1.87830        2.19010       -2.99880
F          4.37460        1.11790       -0.01970
F          2.53000        2.11220       -0.82570
H          2.49370        0.58240        0.48920
Br         1.60810       -3.10940       -0.56520
Br        -0.82300       -2.11300       -2.22010
Br         1.86660       -2.78360       -3.66800
C          5.72990       -0.69010       -3.82280
H          6.18050       -1.61310       -4.24200
H          6.46920       -0.24110       -3.12420
H          5.52360       -0.01550       -4.68350
