20
TSA8_9_CF3_CF3_Br
C          1.56290       -0.32490       -1.69470
C          0.78260       -1.25620       -0.78220
C          1.46320        1.13100       -1.17270
H          2.63630       -0.61280       -1.63970
C          1.48780       -2.35050       -0.02950
C          1.13310       -0.54050       -3.17630
C         -0.30530       -0.17620       -3.45940
C         -1.19680       -1.08830       -3.86030
O         -0.42650       -1.12190       -0.65670
Br         2.27190        0.42330       -4.42340
H          1.29690       -1.61750       -3.40490
H         -0.63060        0.85210       -3.34560
H         -0.91830       -2.12930       -3.99210
H         -2.22200       -0.79360       -4.05880
F          2.23100        1.98690       -1.93920
F          0.15640        1.58340       -1.17060
F          1.94020        1.18350        0.12570
F          0.58850       -3.07200        0.73630
F          2.10040       -3.20670       -0.92590
F          2.44470       -1.79980        0.80310
