20
TSA8_9_CF3_CF3_Br
C          1.91870       -0.06500       -0.04160
C          1.26950       -0.92690       -0.86000
C          2.10370        1.41330       -0.29490
H          2.35400       -0.42700        0.88410
C          1.15070       -2.39840       -0.48240
C         -0.08530       -0.60310       -5.32070
C         -0.41250       -0.28730       -4.06290
C         -0.05440       -1.17180       -2.90450
O          0.72920       -0.45820       -2.02040
Br        -0.56220        0.55390       -6.76510
H          0.45460       -1.51800       -5.54560
H         -0.95440        0.63310       -3.86630
H          0.49250       -2.07270       -3.25890
H         -0.99380       -1.48770       -2.40360
F          3.45670        1.69420       -0.32990
F          1.53510        1.84080       -1.48110
F          1.52900        2.11800        0.74590
F         -0.18220       -2.75260       -0.38950
F          1.76020       -3.17330       -1.45110
F          1.75390       -2.68030        0.73190
