20
TSA8_9_CF3_CF3_Br
C          1.68770       -0.06140       -1.77180
C          0.77290       -0.97260       -0.91660
C          1.49410        1.40760       -1.31180
H          2.75360       -0.30180       -1.56480
C          1.23040       -2.42930       -0.70640
C          1.40090       -0.34290       -3.27020
C         -0.09350       -0.23590       -3.56510
C         -0.86450       -1.14820       -2.60220
O         -0.60740       -0.83320       -1.24150
Br         2.42490        0.75500       -4.50440
H          1.70330       -1.38630       -3.49470
H         -0.44570        0.81040       -3.47140
H         -0.65810       -2.21690       -2.81160
H         -1.94830       -1.00890       -2.79540
F          2.33610        2.25780       -2.00290
F          0.19150        1.84150       -1.47090
F          1.81370        1.50300        0.03170
F          0.34890       -3.06230        0.14990
F          1.29600       -3.14100       -1.88820
F          2.48390       -2.43210       -0.12320
