22
TSA8_9_CH2F_NO2_Me
C          2.13930       -1.17990       -1.44030
C          0.95140       -2.06340       -1.07570
C          1.79100        0.27340       -1.05750
H          3.03130       -1.47300       -0.84540
N          1.05730       -3.06310       -0.15540
C          2.48700       -1.33720       -2.95250
C          3.66560       -0.47170       -3.34020
C          3.56580        0.48590       -4.26790
O         -0.12240       -1.86430       -1.63060
C          2.83980       -2.79340       -3.29670
H          1.59480       -1.04970       -3.55440
H          4.62270       -0.63260       -2.85150
H          2.62770        0.67840       -4.77940
H          4.43230        1.08780       -4.52110
F          2.86960        1.11920       -1.24230
H          1.51570        0.31720        0.01840
H          0.93130        0.64320       -1.65650
O          0.10810       -3.73890        0.10780
O          2.19930       -3.30130        0.45440
H          3.72240       -3.13180       -2.71150
H          3.07370       -2.88320       -4.37950
H          1.98870       -3.47220       -3.08050
