22
TSA8_9_CH2F_NO2_Me
C          1.71110       -0.08240       -0.06610
C          1.41140       -1.03320       -0.98170
C          1.81370        1.38870       -0.36770
H          1.86820       -0.36500        0.97010
N          1.25930       -2.39330       -0.58300
C          2.56870       -2.61590       -4.15290
C          3.08840       -1.55810       -3.51510
C          2.24280       -0.36730       -3.15940
O          1.21880       -0.71060       -2.29010
C          3.42550       -3.78350       -4.53380
H          1.51370       -2.63140       -4.41160
H          4.14650       -1.54050       -3.26750
H          1.79910        0.03860       -4.09300
H          2.89090        0.41640       -2.71820
F          3.09250        1.82920       -0.08580
H          1.09220        1.93530        0.27420
H          1.56370        1.63860       -1.41720
O          0.97150       -3.22340       -1.39120
O          1.39440       -2.75100        0.67840
H          3.87050       -4.24260       -3.62650
H          4.23750       -3.44840       -5.21380
H          2.81080       -4.54350       -5.05990
