23
TSA8_9_NO2_Me_OMe
C          2.12990        0.88490        1.61000
C          1.39670        1.02860        0.29270
N          2.32960       -0.52330        1.90410
H          3.11960        1.38210        1.49700
C          2.04670        1.73830       -0.85770
C          1.35210        1.56940        2.77070
C          1.07370        3.03640        2.48760
C         -0.17180        3.51230        2.38580
O          0.27160        0.56920        0.15990
O          1.96030        1.38290        4.04660
H          0.37250        1.04590        2.83780
H          1.89840        3.72790        2.35200
H         -0.33480        4.56470        2.17860
H         -1.03520        2.86540        2.50830
O          3.43440       -0.96710        1.99030
O          1.29690       -1.32300        2.07550
H          2.28340        2.78280       -0.56530
H          1.37370        1.75680       -1.74120
H          2.98580        1.21470       -1.13370
C          3.27610        1.89640        4.13480
H          3.58890        1.84900        5.19770
H          3.34320        2.96570        3.85170
H          3.99800        1.27100        3.57110
