18
TSA8_9_CN_CBr3_I
C          1.65750       -0.07280        0.04750
C          1.59340       -1.32500        0.59650
C          1.78460        0.23790       -1.36290
H          1.54650        0.80680        0.66730
C          1.39710       -1.52850        2.09330
C          1.59740       -4.11650       -3.11060
C          1.64870       -2.96130       -2.44400
C          0.80370       -2.71030       -1.23680
O          1.61280       -2.46450       -0.14880
I          2.81830       -4.41400       -4.80200
H          0.93470       -4.91670       -2.79470
H          2.31940       -2.17840       -2.77720
H          0.15560       -3.58510       -1.00570
H          0.12170       -1.86200       -1.42260
N          1.88440        0.52340       -2.48140
Br         1.95440       -0.03010        3.19620
Br        -0.47910       -1.88350        2.43610
Br         2.36840       -3.08390        2.73100
