14
TSA8_9_H_Br_I
C          2.24560       -0.21590        0.15110
C          1.35900       -1.12770       -0.24990
H          2.73460        0.43130       -0.57070
H          2.48910       -0.10670        1.20270
Br         0.53450       -2.24610        1.08310
C         -0.90440       -1.37640       -4.31660
C         -0.77870       -1.17960       -3.00030
C          0.11840       -2.03480       -2.15320
O          1.08720       -1.23610       -1.57820
I         -2.17180       -0.14350       -5.46850
H         -0.35830       -2.16900       -4.82010
H         -1.33710       -0.37840       -2.52660
H          0.62100       -2.81160       -2.76810
H         -0.50770       -2.55020       -1.39720
