19
TSA8_9_CCl3_CN_OH
C          1.47910        0.18940        1.95370
C          2.13240        1.57650        1.97470
C          2.04420       -0.93450        0.96970
H          0.53230        0.49550        1.48520
C          2.74450        2.16630        0.81660
C          1.03810       -0.29790        3.37900
C         -0.08630       -1.30520        3.26490
C         -1.24080       -0.97760        2.66750
O          1.74480        2.37240        2.82420
O          2.13020       -0.83490        4.08800
H          0.63120        0.56160        3.95970
H          0.03920       -2.31000        3.65660
H         -1.40650        0.01960        2.26830
H         -2.03390       -1.70340        2.55960
Cl         2.19750       -2.56950        1.69130
Cl         0.91930       -1.13740       -0.41020
Cl         3.65970       -0.61010        0.28580
N          3.24160        2.64560       -0.12110
H          1.83650       -0.94830        5.03280
