20
TSA8_9_Me_H_CHF2
C          1.47850       -2.20160        0.21760
C          1.29570       -0.93740        1.02520
C          1.21660       -1.89820       -1.26760
H          2.54880       -2.49060        0.31250
H          2.14180       -0.51570        1.55840
C          0.62530       -3.36750        0.81180
C         -0.86370       -3.08410        0.76330
C         -1.59930       -2.97980        1.87470
O          0.21520       -0.37070        1.07880
C          0.91150       -4.72750        0.14590
H          0.94870       -3.47260        1.87320
H         -1.35330       -2.96590       -0.19850
H         -1.15340       -3.09270        2.85810
H         -2.66310       -2.77810        1.80370
H          0.16150       -1.60040       -1.44060
H          1.46230       -2.76840       -1.90570
H          1.87250       -1.06480       -1.59980
F          0.26810       -5.73250        0.84770
F          0.46990       -4.76380       -1.16450
H          2.00200       -4.93690        0.16900
