20
TSA8_9_Me_H_CHF2
C          1.87060       -0.07860        0.04670
C          1.20300       -0.83210        0.93230
C          2.03060       -0.44800       -1.40030
H          2.31510        0.85220        0.38630
H          1.12780       -0.48570        1.96080
C         -0.32810       -5.21460        1.21520
C         -0.61300       -3.98930        0.74930
C         -0.13270       -2.74750        1.44270
O          0.62980       -2.00340        0.56980
C         -0.81630       -6.44760        0.51670
H          0.26440       -5.33200        2.11830
H         -1.21130       -3.87790       -0.15150
H          0.46940       -3.00060        2.34420
H         -1.01700       -2.15370        1.76100
H          1.53890       -1.41140       -1.65030
H          3.11110       -0.52950       -1.63960
H          1.58140        0.34890       -2.02840
F         -2.19860       -6.44770        0.46520
F         -0.30680       -6.49700       -0.76800
H         -0.47780       -7.34760        1.07230
