20
TSA8_9_Me_H_CHF2
C          1.30980       -2.58400        0.30490
C          1.22050       -1.41580        1.30270
C          0.97610       -2.07150       -1.10670
H          2.35970       -2.94870        0.27860
H          1.64780       -1.67400        2.29900
C          0.38640       -3.72110        0.82760
C         -1.02410       -3.17450        1.09340
C         -0.92290       -1.94600        2.00760
O         -0.11040       -0.94120        1.42380
C          0.33710       -4.97670       -0.06020
H          0.80200       -4.04520        1.80890
H         -1.52280       -2.88800        0.14310
H         -0.54170       -2.22890        3.01520
H         -1.94290       -1.53570        2.15900
H          1.11420       -2.87160       -1.86070
H          1.67380       -1.25020       -1.37690
H         -0.05950       -1.67980       -1.17240
F         -0.26760       -4.72360       -1.27830
F          1.61430       -5.46420       -0.27180
H         -0.25690       -5.76170        0.45490
