24
TSA8_9_Me_CH2F_OMe
C          1.80070        0.13860       -0.01910
C          1.45360        1.42550        0.19910
C          1.90010       -0.90390        1.05970
H          2.00950       -0.19340       -1.03220
C          1.32800        2.38290       -0.95480
C          4.27460        3.37300        1.72080
C          2.95040        3.41650        1.90450
C          2.16840        2.21700        2.36810
O          1.18810        1.88820        1.44840
O          4.93030        4.48330        1.30810
H          4.81920        2.44960        1.90500
H          2.41520        4.34360        1.71850
H          1.67730        2.48020        3.32750
H          2.83470        1.34760        2.55390
H          1.62570       -0.51950        2.06160
H          2.93630       -1.29840        1.09410
H          1.20620       -1.73590        0.81940
F          0.03840        2.87820       -1.00230
H          1.55730        1.89690       -1.92730
H          2.03440        3.22670       -0.81520
C          6.29340        4.53150        1.10240
H          6.49350        4.81300        0.04800
H          6.78420        3.55540        1.31070
H          6.73520        5.30080        1.76870
