19
TSA8_9_CF3_Cl_NH2
C          1.64640       -1.06910        2.14450
C          1.05440        0.25660        1.61950
C          1.62340       -2.12520        1.01040
H          2.72010       -0.91180        2.38930
Cl         1.53220        1.70080        2.57140
C          0.89390       -1.44340        3.45110
C         -0.62360       -1.43710        3.22620
C         -1.03230       -0.08630        2.62540
O         -0.34950        0.17820        1.40740
N          1.34590       -2.71360        4.02070
H          1.11600       -0.64480        4.19450
H         -0.93480       -2.26090        2.55260
H         -0.87530        0.73360        3.35980
H         -2.12310       -0.11310        2.42210
F          2.35010       -1.64510       -0.06570
F          2.21960       -3.30170        1.42410
F          0.34070       -2.39820        0.57360
H          0.98690       -3.51380        3.45280
H          0.94440       -2.81430        4.98120
