20
TSA8_9_Me_CHF2_I
C          2.45430        0.50660        1.27790
C          1.42730        1.44550        0.65100
C          2.10610       -0.96880        0.89690
H          3.42120        0.77450        0.83300
C          1.84550        2.47160       -0.37070
C          2.52450        0.71940        2.82700
C          1.49220       -0.11370        3.53040
C          0.24200        0.30130        3.67500
O          0.24490        1.36770        0.96150
I          4.42330        0.25570        3.73960
H          2.43530        1.79800        3.07420
H          1.74530       -1.13660        3.79300
H         -0.05320        1.29570        3.37540
H         -0.50430       -0.38810        4.06910
H          1.19310       -1.34630        1.38640
H          2.95180       -1.64920        1.15330
H          1.89880       -1.04740       -0.19670
F          0.75780        3.21940       -0.78770
F          2.79880        3.31780        0.15280
H          2.27620        1.94340       -1.26480
