22
TSA8_9_Et_CN_CN
C          1.77920        1.81220        0.14980
C          1.26000        1.17610       -1.20300
C          2.12030        1.23490        1.58670
H          0.81960        1.27640        0.24390
C          1.90200        0.01540       -1.83680
C          1.33360        3.30770        0.33950
C          0.80900        3.99910       -0.90420
C         -0.06690        3.02520       -1.63600
O          0.79380        2.06030       -2.20370
C          2.37640        4.17910        0.92120
H          0.49580        3.29030        1.07120
H          1.63780        4.29710       -1.59690
H         -0.60710        3.56350       -2.43640
H         -0.83980        2.58160       -0.95830
C          3.23260        0.21790        1.72830
H          1.21760        0.85760        2.14200
H          2.45950        2.06720        2.23620
H          2.98610       -0.73730        1.23160
H          3.36280        0.02520        2.82380
H          4.18130        0.64730        1.35030
N          2.33680       -0.90210       -2.39670
N          3.21620        4.84580        1.34110
