19
TSA8_9_CF3_OH_CN
C          2.27510        0.85060       -1.54720
C          1.09550       -0.17690       -1.61230
C          2.20770        1.68580       -0.22610
H          3.22300        0.26720       -1.50220
O          1.57340       -1.48570       -1.77620
C          2.24350        1.64450       -2.87810
C          0.89220        2.35700       -3.05540
C         -0.25090        1.46960       -2.53160
O          0.11030        0.10650       -2.60570
C          3.37970        2.54170       -3.12080
H          2.29310        0.88490       -3.68850
H          0.81490        3.35410       -2.56490
H         -1.15990        1.65750       -3.13930
H         -0.51840        1.73090       -1.48100
F          3.43790        1.65250        0.40720
F          1.87960        3.00980       -0.44370
F          1.27600        1.15340        0.65340
H          2.02310       -1.51690       -2.66080
N          4.26160        3.25630       -3.34600
