18
TSA8_9_H_OH_Me
C          3.06460       -1.52150       -1.37480
C          1.60270       -1.31600       -1.07630
H          3.67370       -0.94950       -0.64090
H          3.29180       -2.60220       -1.24180
O          0.83110       -2.37660       -0.75730
C          3.44090       -1.11590       -2.81550
C          3.24120        0.36680       -3.03580
C          2.40120        0.83930       -3.96180
O          1.11630       -0.19520       -1.10360
C          4.90600       -1.46540       -3.09570
H          2.81220       -1.70470       -3.52170
H          3.79850        1.07080       -2.42360
H          1.82630        0.16990       -4.59380
H          2.28510        1.91040       -4.09110
H         -0.10940       -2.27420       -0.55460
H          5.58220       -0.91490       -2.40600
H          5.16810       -1.19980       -4.14240
H          5.07260       -2.55580       -2.96390
