20
TSA8_9_CF3_CCl3_Br
C          1.72920       -0.09470        0.07020
C          1.45230       -1.33560        0.56360
C          1.86810        0.33320       -1.37340
H          1.84580        0.73410        0.75640
C          1.23840       -1.57570        2.05330
C          3.72230       -4.90630       -1.37120
C          2.78860       -4.25550       -0.67190
C          2.30680       -2.90340       -1.10520
O          1.34640       -2.44830       -0.21890
Br         4.33520       -6.62520       -0.80350
H          4.14890       -4.46770       -2.26860
H          2.37670       -4.71220        0.22390
H          1.86150       -2.99520       -2.11850
H          3.18110       -2.21490       -1.13660
F          3.16910        0.73790       -1.60470
F          1.52290       -0.64060       -2.28330
F          1.02640        1.40860       -1.58770
Cl         2.44470       -2.75210        2.63060
Cl         1.35520       -0.13270        3.10840
Cl        -0.38330       -2.27370        2.29240
