20
TSA8_9_CF3_CCl3_Br
C          2.78390       -1.27170       -0.17570
C          1.33440       -1.58210        0.29370
C          2.75040       -0.11440       -1.20030
H          3.37570       -0.85240        0.66540
C          1.09700       -1.91040        1.78780
C          3.50640       -2.53000       -0.73660
C          2.55660       -3.70440       -0.97300
C          1.21540       -3.20380       -1.49770
O          0.51940       -2.34030       -0.60320
Br         4.95490       -3.11360        0.42260
H          3.98750       -2.27640       -1.70550
H          2.35970       -4.26750       -0.04420
H          0.57940       -4.09650       -1.67240
H          1.34900       -2.70940       -2.47990
F          4.04210        0.23210       -1.55990
F          2.04860       -0.45060       -2.34140
F          2.15110        0.99400       -0.62690
Cl         1.89130       -3.39950        2.35150
Cl         1.67760       -0.56280        2.80040
Cl        -0.65280       -2.07000        2.09170
