21
TSA8_9_CN_CH2F_Me
C          2.84570       -0.91780       -1.19370
C          1.64690       -1.70770       -0.65880
C          2.45900        0.51510       -0.99130
H          3.71350       -1.10450       -0.53880
C          1.70720       -2.46720        0.63740
C          3.13000       -1.29620       -2.74280
C          2.28710       -0.35180       -3.54560
C          1.03230       -0.60960       -3.85360
O          0.58490       -1.70610       -1.26100
C          4.51120       -1.32000       -3.49130
H          2.82040       -2.36030       -2.81280
H          2.68240        0.65380       -3.71180
H          0.60380       -1.57450       -3.62610
H          0.43390        0.18740       -4.26840
N          2.07460        1.60180       -0.89600
F          0.49700       -3.10230        0.88580
H          1.89560       -1.75930        1.47090
H          2.50550       -3.23240        0.60340
H          5.33620       -1.85880       -2.97920
H          4.87940       -0.32740       -3.84540
H          4.35780       -1.89320       -4.44610
