21
TSA8_9_CN_CH2F_Me
C          1.66060       -0.05810       -0.00960
C          1.50060       -1.34630       -0.40410
C          1.82690        1.08120       -0.86590
H          1.61140        0.16290        1.05390
C          1.51440       -2.40460        0.64480
C          3.41960       -1.73340       -4.18390
C          2.84090       -1.01330       -3.21310
C          1.38320       -1.15820       -2.89180
O          1.27360       -1.79130       -1.67690
C          4.87090       -1.57170       -4.53070
H          2.83780       -2.45740       -4.74400
H          3.43910       -0.32240       -2.62800
H          0.87140       -1.78750       -3.66380
H          0.86220       -0.17950       -2.90080
N          1.96180        2.00980       -1.54430
F          0.26690       -2.95800        0.65390
H          1.75430       -1.99580        1.64910
H          2.27340       -3.20060        0.42310
H          5.51800       -1.78750       -3.65540
H          5.06220       -0.53530       -4.88300
H          5.13950       -2.27170       -5.35110
