21
TSA8_9_CN_CH2F_Me
C          2.84080       -0.76580       -1.31940
C          1.43620       -1.35060       -0.97050
C          2.62310        0.69780       -1.28210
H          3.58680       -1.00240       -0.52760
C          1.47270       -2.34640        0.19510
C          3.23750       -1.36350       -2.72230
C          2.22050       -0.84790       -3.72730
C          0.80000       -1.05300       -3.20820
O          0.77110       -1.93180       -2.09370
C          4.62130       -1.26790       -3.40300
H          3.11850       -2.46240       -2.59600
H          2.39800        0.24070       -3.91860
H          0.25480       -1.51420       -4.05460
H          0.30240       -0.08640       -2.97040
N          2.43370        1.84120       -1.27310
F          0.20000       -2.83250        0.43690
H          1.82740       -1.83550        1.11550
H          2.14760       -3.20070       -0.02250
H          5.43580       -1.73720       -2.81460
H          4.90490       -0.24940       -3.73490
H          4.55020       -1.88540       -4.33760
