20
TSA8_9_CCl3_CF3_F
C          1.30010       -0.75230        1.30460
C          2.69110       -1.35270        1.55730
C          1.13240       -0.03740       -0.07710
H          1.21910        0.08300        2.03940
C          3.36120       -2.46960        0.78580
C          0.12920       -1.69660        1.71140
C         -0.00050       -2.96920        0.91630
C         -1.08030       -3.23750        0.17560
O          3.34100       -0.87250        2.47570
F          0.27540       -2.04570        3.04320
H         -0.81580       -1.11750        1.63490
H          0.78850       -3.70860        0.96340
H         -1.90510       -2.53490        0.10590
H         -1.14220       -4.17240       -0.37180
Cl         1.03160       -1.10830       -1.49860
Cl        -0.35860        0.94790       -0.08250
Cl         2.48620        1.09670       -0.34680
F          4.55660       -2.00090        0.27260
F          3.62980       -3.51470        1.65050
F          2.61450       -2.95530       -0.26090
