20
TSA8_9_CCl3_CF3_F
C          1.49610        0.09400        0.04500
C          1.68260       -1.11960        0.62310
C          2.29120        0.75270       -1.06900
H          0.65210        0.66810        0.41900
C          2.79380       -2.09590        0.26260
C         -0.90140       -3.80750        3.40890
C          0.06370       -3.52280        2.52930
C         -0.12350       -2.49370        1.45110
O          0.78790       -1.46350        1.58870
F         -0.69520       -4.75700        4.35830
H         -1.85760       -3.29390        3.37820
H          1.00220       -4.06180        2.59220
H         -1.14350       -2.05440        1.50370
H         -0.02600       -2.98860        0.45780
Cl         2.24540       -0.19770       -2.57500
Cl         1.55220        2.33200       -1.44520
Cl         3.97790        1.07450       -0.59860
F          4.03170       -1.52160        0.46600
F          2.72780       -3.21590        1.06500
F          2.68130       -2.51100       -1.04840
