20
TSA8_9_OH_OH_OMe
C          1.71350        0.06440       -0.04690
C          1.51490        1.19090        0.66900
O          1.82250       -1.15330        0.51890
H          1.77330        0.13850       -1.12980
O          1.39660        2.35040       -0.00920
C          3.84030       -0.79680        3.81340
C          3.25690        0.06820        2.96550
C          1.76590        0.26950        2.96120
O          1.41700        1.23540        2.03340
O          5.18600       -0.99590        3.87010
H          3.21690       -1.36600        4.49630
H          3.85650        0.64830        2.27160
H          1.46430        0.63140        3.96710
H          1.21750       -0.67670        2.77520
H          1.93710       -1.94190       -0.02810
H          1.26860        3.18920        0.45500
C          6.13440       -0.32730        3.11860
H          7.14330       -0.69850        3.39210
H          6.09130        0.76290        3.32960
H          5.96930       -0.51190        2.03560
