20
TSA8_9_OH_OH_OMe
C          2.80500       -0.36540        1.06860
C          1.67330        0.68910        1.08760
O          2.35610       -1.52640        0.42290
H          3.61990        0.09580        0.46700
O          2.16770        1.99610        0.98380
C          3.24860       -0.71280        2.51220
C          3.05920        0.50810        3.42310
C          1.54240        0.83020        3.44570
O          0.84090        0.56730        2.22540
O          4.52470       -1.34120        2.55910
H          2.53090       -1.46120        2.91850
H          3.63310        1.36360        3.00540
H          1.37020        1.87200        3.78950
H          1.09870        0.15310        4.20560
H          3.16630       -2.02550        0.13920
H          1.79400        2.33780        0.13260
C          5.59650       -0.42270        2.49020
H          6.53510       -0.99800        2.35580
H          5.69980        0.14160        3.44190
H          5.51910        0.25880        1.61850
