22
TSA8_9_CHF2_NO2_Me
C          1.75940       -0.00860        0.13800
C          1.47420       -0.50210        1.36700
C          1.84670       -0.81120       -1.13860
H          1.93490        1.05670        0.02530
N          1.37770        0.37320        2.49230
C          2.94170       -3.41140        4.09340
C          2.93590       -2.48880        3.12050
C          2.27100       -2.74280        1.79240
O          1.25780       -1.83100        1.54850
C          3.61270       -3.14610        5.40520
H          2.45810       -4.37260        3.94180
H          3.42790       -1.53360        3.28290
H          1.82980       -3.76210        1.76860
H          3.03730       -2.68660        0.99020
F          3.12050       -0.69740       -1.66190
F          1.54360       -2.14950       -0.97350
H          1.12270       -0.39000       -1.86650
O          1.08100       -0.06430        3.56250
O          1.57770        1.66860        2.36340
H          3.14250       -2.27110        5.90130
H          4.69260       -2.94360        5.24450
H          3.50820       -4.03290        6.06500
