17
TSA8_9_CF3_F_I
C          1.60670       -0.33160        1.66570
C          0.98110        0.73840        0.79860
C          1.38650       -1.72390        1.02200
H          2.70290       -0.14410        1.67150
F          1.77090        1.67790        0.21630
C          1.12590       -0.18240        3.13970
C         -0.34850       -0.44500        3.33540
C         -1.18480        0.50650        3.76270
O         -0.22480        0.76940        0.60790
I          2.22200       -1.42090        4.50880
H          1.36750        0.85780        3.45500
H         -0.74680       -1.43390        3.13630
H         -0.83260        1.51020        3.98020
H         -2.23790        0.28160        3.89740
F          2.01990       -2.71400        1.74760
F          0.04170       -2.03220        0.92340
F          1.92380       -1.72570       -0.25390
