17
TSA8_9_CF3_F_I
C          1.64540       -0.48560        2.00070
C          1.18660        0.83630        1.35420
C          1.40450       -1.65440        1.00990
H          2.74310       -0.44020        2.17240
F          1.66160        1.94730        2.03750
C          0.94230       -0.59840        3.37910
C         -0.57040       -0.43280        3.23430
C         -0.85920        0.86970        2.47410
O         -0.22530        0.88690        1.20390
I          1.41640       -2.35670        4.51350
H          1.29940        0.24540        4.01000
H         -1.01500       -1.29820        2.70340
H         -0.55830        1.75480        3.07820
H         -1.95570        0.95050        2.32570
F          2.11520       -1.41140       -0.15260
F          1.85800       -2.84840        1.53570
F          0.07080       -1.79320        0.67440
