25
TSA8_9_Et_NH2_CH2F
C          2.65210       -1.38280        0.89190
C          1.68430       -1.14480        2.04110
C          1.97840       -0.82990       -0.39600
H          3.57190       -0.78200        1.07010
N          2.01630       -0.32830        3.06860
C          3.03010       -2.90260        0.85680
C          3.95360       -3.26270       -0.28160
C          3.60750       -4.16480       -1.20820
O          0.59190       -1.69550        2.04000
C          3.72050       -3.33440        2.16680
H          2.08920       -3.49100        0.76090
H          4.92660       -2.78460       -0.34960
H          2.64520       -4.66740       -1.17370
H          4.29180       -4.40640       -2.01430
C          2.91360       -0.63150       -1.59320
H          1.59870        0.19070       -0.16330
H          1.10850       -1.45950       -0.68390
H          3.76550        0.02210       -1.30720
H          2.35300       -0.13320       -2.41190
H          3.29840       -1.57780       -2.00580
H          1.35510       -0.17130        3.84330
H          2.93000        0.14660        3.09410
F          4.90120       -2.63450        2.35550
H          3.95100       -4.42100        2.13430
H          3.06150       -3.16300        3.04270
