25
TSA8_9_Et_NH2_CH2F
C          1.78210       -0.07050        0.17800
C          1.47560       -0.97800        1.13430
C          1.82190       -0.32260       -1.30590
H          1.99610        0.94910        0.48800
N          1.39830       -0.54850        2.48490
C          3.77590       -4.40190        1.77680
C          3.38000       -3.26740        1.18420
C          2.13710       -3.19410        0.33740
O          1.23010       -2.29300        0.87670
C          5.02570       -4.44050        2.60210
H          3.19380       -5.31230        1.66460
H          3.97280       -2.36410        1.30400
H          1.64130       -4.18620        0.27330
H          2.44680       -2.91980       -0.68420
C          3.24070       -0.14780       -1.83490
H          1.14850        0.40920       -1.80040
H          1.43770       -1.32060       -1.57970
H          3.61270        0.87630       -1.61710
H          3.25200       -0.30570       -2.93360
H          3.91950       -0.88920       -1.36100
H          1.16260       -1.22490        3.22540
H          1.56760        0.43360        2.74770
F          6.11730       -4.10620        1.82060
H          5.17360       -5.46230        3.00900
H          4.94390       -3.72480        3.44700
