21
TSA8_9_NO2_CF3_NH2
C          3.02860       -0.08150       -1.53690
C          1.56380       -0.58790       -1.49700
N          3.12170        1.14700       -0.76160
H          3.68000       -0.83240       -1.03220
C          1.35260       -2.10950       -1.57190
C          3.54020        0.15240       -2.98840
C          2.41180        0.06470       -4.02530
C          1.14990        0.73140       -3.48020
O          0.62810        0.14380       -2.28950
N          4.61990       -0.77690       -3.32700
H          3.96170        1.18100       -3.04390
H          2.16570       -0.98060       -4.28610
H          0.37220        0.65930       -4.26890
H          1.34290        1.80990       -3.30900
O          3.82190        1.18960        0.20460
O          2.43680        2.21730       -1.10460
F          0.00790       -2.38890       -1.41250
F          1.77890       -2.64530       -2.76810
F          2.04740       -2.71830       -0.54310
H          4.26340       -1.76000       -3.32490
H          4.98350       -0.55500       -4.28280
