18
TSA8_9_OH_F_CHF2
C          1.32820       -1.90420        1.65110
C          1.42430       -0.41320        1.44480
O          0.94470       -2.52130        0.44810
H          2.33580       -2.27150        1.95980
F          2.60940        0.22000        1.64540
C          0.34450       -2.27500        2.79100
C         -1.07300       -1.84900        2.46800
C         -1.73780       -0.97080        3.22550
O          0.45390        0.23260        1.08110
C          0.37420       -3.78630        3.08280
H          0.69570       -1.75990        3.71490
H         -1.56700       -2.26840        1.59610
H         -1.28190       -0.52780        4.10530
H         -2.75250       -0.68860        2.96390
H          1.76620       -2.61930       -0.10100
F         -0.44280       -4.07550        4.16190
F         -0.05410       -4.51810        1.98800
H          1.40870       -4.10000        3.33850
