18
TSA8_9_OH_F_CHF2
C          1.01340       -2.03160        1.64420
C          1.05970       -0.49480        1.61500
O          0.35590       -2.49420        0.49190
H          2.04830       -2.44400        1.67630
F          1.84680        0.02480        2.63280
C          0.25330       -2.47820        2.91160
C         -1.11680       -1.78790        2.94460
C         -0.91690       -0.27110        2.82940
O         -0.24250        0.07000        1.62830
C          0.10930       -4.00490        3.02160
H          0.82910       -2.13540        3.80130
H         -1.74870       -2.13660        2.09830
H         -0.37850        0.12980        3.71720
H         -1.91620        0.21150        2.82210
H          1.01310       -2.44450       -0.25060
F         -0.62810       -4.51900        1.96880
F          1.35750       -4.60150        3.03490
H         -0.40990       -4.25860        3.97030
