26
TSA8_9_Me_Et_CBr3
C          2.70200        0.68310       -1.36470
C          1.55740       -0.31670       -1.31010
C          2.82810        1.36460        0.00740
H          3.63340        0.10070       -1.51410
C          1.80810       -1.79370       -1.48490
C          2.52490        1.64820       -2.59130
C          1.28710        2.51610       -2.44180
C          0.24350        2.41740       -3.27160
O          0.41720        0.06920       -1.09770
C          3.75820        2.53500       -2.94990
H          2.39670        0.97440       -3.47000
H          1.24170        3.24630       -1.63980
H          0.24050        1.70410       -4.08970
H         -0.62110        3.05740       -3.13140
H          1.93220        1.97580        0.24270
H          3.73460        1.99080        0.06560
H          2.93460        0.59060        0.79820
C          2.36830       -2.11450       -2.86970
H          0.85480       -2.35200       -1.35850
H          2.51970       -2.13850       -0.70460
H          1.65480       -1.78900       -3.65640
H          2.52340       -3.21030       -2.96030
H          3.34390       -1.61270       -3.03480
Br         3.44950        3.40420       -4.66300
Br         4.14760        3.96620       -1.68920
Br         5.36580        1.46670       -3.18090
