26
TSA8_9_Me_Et_CBr3
C          2.55390        0.73120       -1.52140
C          1.27030       -0.15980       -1.63270
C          2.49510        1.50320       -0.19740
H          3.45070        0.08060       -1.45300
C          1.55030       -1.66970       -1.63710
C          2.65750        1.61630       -2.80060
C          1.34400        2.39890       -3.02650
C          0.11920        1.56590       -2.61890
O          0.41650        0.19130       -2.71670
C          3.91650        2.51390       -2.97170
H          2.71460        0.87500       -3.62980
H          1.28930        3.37510       -2.50020
H         -0.73770        1.82550       -3.27350
H         -0.20860        1.81580       -1.58190
H          1.64570        2.21580       -0.17360
H          3.44020        2.04810       -0.01720
H          2.37820        0.78820        0.64510
C          2.28760       -2.13420       -2.89470
H          0.57930       -2.20640       -1.57710
H          2.14560       -1.93590       -0.73750
H          1.69210       -1.90020       -3.80220
H          2.44160       -3.23260       -2.84660
H          3.28130       -1.64840       -2.97940
Br         3.94760        3.24090       -4.77430
Br         4.00090        4.04000       -1.76680
Br         5.54710        1.47840       -2.76680
