20
TSA8_9_Me_H_CBr3
C          1.34820       -1.16630        1.94670
C          1.02530        0.22600        1.45230
C          1.39500       -2.12410        0.74710
H          2.37740       -1.11010        2.35970
H          1.75500        1.02000        1.57530
C          0.37820       -1.58090        3.10970
C         -1.06950       -1.60510        2.64950
C         -1.98470       -0.76440        3.14350
O         -0.03510        0.47400        0.89950
C          0.72240       -2.91350        3.84730
H          0.50170       -0.78300        3.87800
H         -1.37970       -2.32400        1.89780
H         -1.72400       -0.02780        3.89710
H         -3.00980       -0.81110        2.79090
H          0.39480       -2.24010        0.28000
H          1.79070       -3.11220        1.04220
H          2.09500       -1.72840       -0.02030
Br         2.57000       -2.94880        4.44890
Br        -0.36630       -3.05930        5.45280
Br         0.37760       -4.53620        2.82470
