20
TSA8_9_Me_H_CBr3
C          1.83720       -0.04640        0.04400
C          1.11720        0.12530        1.16090
C          2.13680       -1.39320       -0.54940
H          2.22070        0.83150       -0.46830
H          0.93730        1.13760        1.51580
C         -0.31400       -2.47710        4.74200
C         -0.58050       -2.12290        3.47410
C         -0.21030       -0.77230        2.93470
O          0.61250       -0.93040        1.84160
C         -0.68640       -3.83190        5.28610
H          0.18150       -1.76910        5.40050
H         -1.08230       -2.82090        2.80940
H          0.30500       -0.15930        3.70820
H         -1.13890       -0.24640        2.62510
H          1.69840       -2.22470        0.04090
H          3.23600       -1.53500       -0.59880
H          1.72100       -1.43570       -1.57760
Br        -0.16910       -3.95960        7.15010
Br        -2.60240       -4.11450        5.16940
Br         0.22830       -5.23300        4.30490
