20
TSA8_9_Me_H_CBr3
C          1.48140       -1.37070        2.39460
C          1.18020        0.09750        2.04310
C          1.67760       -2.16270        1.09330
H          2.44960       -1.39800        2.93840
H          1.23970        0.76880        2.93040
C          0.33920       -1.87510        3.33310
C         -1.02670       -1.59950        2.67800
C         -1.11230       -0.12130        2.27780
O         -0.06840        0.22580        1.38470
C          0.44330       -3.33530        3.86160
H          0.39620       -1.22940        4.23910
H         -1.17080       -2.23250        1.77770
H         -1.10160        0.53640        3.17670
H         -2.08520        0.04990        1.77220
H          2.01680       -3.19330        1.30740
H          2.47960       -1.68810        0.48790
H          0.75340       -2.18970        0.48010
Br         2.16490       -3.65470        4.70120
Br        -0.90280       -3.61180        5.23660
Br         0.13850       -4.72010        2.52630
