21
TSA8_9_Me_CCl3_CN
C          1.62240       -1.61700       -0.59310
C          2.26030       -1.70220        0.80200
C          2.11480       -0.44990       -1.46730
H          0.55160       -1.39820       -0.44160
C          1.97710       -0.72000        1.93040
C          1.60090       -2.97600       -1.36300
C          0.85170       -4.00520       -0.55140
C         -0.42080       -3.81210       -0.21760
O          2.98680       -2.65220        1.06650
C          2.92610       -3.53750       -1.73430
H          1.03980       -2.84070       -2.32480
H          1.35560       -4.91330       -0.21260
H         -0.95760       -4.52680        0.38640
H         -0.96020       -2.92340       -0.54880
H          1.77970       -0.59780       -2.51720
H          3.21810       -0.32830       -1.46860
H          1.64100        0.50150       -1.13320
Cl         3.45110        0.20340        2.31360
Cl         0.66270        0.43100        1.57050
Cl         1.49550       -1.61310        3.40390
N          3.92810       -3.96430       -2.12870
