21
TSA8_9_Me_CCl3_CN
C          2.01170       -1.67200       -0.67970
C          1.10760       -1.62420        0.61770
C          1.89390       -0.35890       -1.50240
H          3.05890       -1.83770       -0.34530
C          1.58530       -0.67730        1.77510
C          1.66190       -2.88650       -1.60400
C          1.25240       -4.12520       -0.81600
C          0.20360       -3.68670        0.18540
O          0.86920       -2.91040        1.14660
C          2.79390       -3.23600       -2.48210
H          0.77930       -2.63870       -2.22650
H          2.10470       -4.57230       -0.25440
H         -0.24100       -4.57010        0.68250
H         -0.64190       -3.13960       -0.30600
H          1.62080       -0.55820       -2.56470
H          2.84750        0.20560       -1.52210
H          1.07690        0.29130       -1.11990
Cl         3.32780       -0.27080        1.73720
Cl         0.65580        0.83540        1.73820
Cl         1.29520       -1.40570        3.39270
N          3.70420       -3.51830       -3.13940
