16
TSA8_9_Br_NH2_H
C          1.88060        0.17080        0.03810
C          1.51530        1.46950        0.12510
Br         2.22590       -1.04730        1.47850
H          1.95900       -0.28210       -0.94510
N          1.23420        2.17200       -1.07620
C          4.03510        3.81250        2.58330
C          3.54630        2.69300        2.04060
C          2.18650        2.15650        2.40690
O          1.36780        2.16180        1.29270
H          5.01380        4.17600        2.29050
H          3.46640        4.37650        3.31730
H          4.14250        2.15810        1.30710
H          1.71610        2.80340        3.17750
H          2.27930        1.15930        2.86220
H          0.95990        3.16420       -1.03650
H          1.32400        1.72020       -1.99780
