16
TSA8_9_Br_NH2_H
C          3.05530        1.46770        0.33820
C          1.51960        1.74590        0.41120
Br         3.48180       -0.31030        1.01270
H          3.40100        1.46220       -0.71880
N          1.10420        2.50250       -0.76540
C          3.78730        2.54840        1.13210
C          3.31030        2.56160        2.59140
C          1.85010        2.09100        2.70860
O          1.11170        2.47700        1.57260
H          4.89290        2.44700        1.08290
H          3.51850        3.52670        0.67570
H          3.92380        1.90570        3.24590
H          1.39860        2.52610        3.62450
H          1.78360        0.98800        2.83600
H          0.08450        2.72000       -0.68460
H          1.22360        1.89780       -1.60960
