18
TSA8_9_Br_OH_CHF2
C          1.37730        0.28950       -2.50230
C          2.57030        0.06700       -1.55750
Br         0.12420        1.46970       -1.58350
H          0.80060       -0.64570       -2.66960
O          3.44170       -0.91400       -2.03600
C          1.84140        0.91580       -3.84590
C          3.19890        1.63520       -3.68890
C          3.32870        2.23140       -2.28260
O          3.28870        1.25820       -1.23550
C          1.91690       -0.11960       -4.98330
H          1.06890        1.65230       -4.15650
H          4.04280        0.91840       -3.79470
H          2.53780        2.99310       -2.11880
H          4.30770        2.75200       -2.23120
H          3.39040       -1.64170       -1.36600
F          2.26930        0.50250       -6.16840
F          2.83760       -1.11380       -4.70350
H          0.92100       -0.59170       -5.12260
