20
TSA8_9_CCl3_CBr3_I
C          1.89300       -0.00590        0.02700
C          1.55700       -0.30220        1.30980
C          1.85830       -0.91130       -1.19290
H          2.23900        0.99150       -0.20730
C          1.59320        0.75040        2.42150
C          2.25490       -3.86470        4.19720
C          1.58370       -2.92370        3.52770
C          2.00070       -2.52660        2.14310
O          1.14880       -1.55340        1.64790
I          1.67670       -4.41460        6.15020
H          3.11160       -4.36010        3.74890
H          0.73100       -2.43910        3.99440
H          1.95310       -3.42070        1.48850
H          3.05410       -2.16670        2.16070
Cl         1.14720       -2.53530       -0.98920
Cl         0.90420       -0.09580       -2.45500
Cl         3.52130       -1.10670       -1.79440
Br         2.07060        2.56490        1.88460
Br        -0.17260        0.85930        3.21170
Br         2.84660        0.25640        3.81590
