20
TSA8_9_CCl3_CBr3_I
C          2.71110       -1.04590        1.41610
C          1.18370       -0.74180        1.55310
C          3.15490       -0.89530       -0.07630
H          3.23630       -0.28860        2.03560
C          0.65620        0.42370        2.44020
C          3.04800       -2.46000        1.98320
C          2.08380       -2.80540        3.09800
C          0.65710       -2.85800        2.51240
O          0.34630       -1.88350        1.52050
I          5.04430       -2.61020        2.76770
H          2.91260       -3.24810        1.21260
H          2.18990       -2.05940        3.90310
H         -0.09510       -2.84350        3.32850
H          0.57670       -3.84240        2.00520
Cl         2.30360       -2.05770       -1.13820
Cl         2.79650        0.73360       -0.70600
Cl         4.90750       -1.13370       -0.29970
Br         1.60100        2.08480        2.10820
Br        -1.20210        0.74770        1.99670
Br         0.73490        0.11040        4.35090
