18
TSA8_9_OMe_F_I
C          0.28940       -1.06020       -0.82610
C          0.93900       -0.99050        0.58070
O          1.23940       -0.79670       -1.84260
H         -0.54810       -0.32160       -0.83390
F          0.06180       -0.47620        1.52670
C         -0.30880       -2.46000       -1.07720
C         -0.85340       -3.00350        0.23470
C          0.35800       -3.19190        1.18310
O          1.42030       -2.24970        1.00310
I         -1.79930       -2.40470       -2.61160
H          0.48750       -3.16330       -1.41130
H         -1.57990       -2.26730        0.64360
H          0.78630       -4.18570        0.93540
H          0.02630       -3.22800        2.24230
C          1.42580        0.59410       -1.99150
H          2.18480        0.76150       -2.78300
H          1.82060        1.05240       -1.05820
H          0.49060        1.09380       -2.32810
