19
TSA8_9_Br_CF3_NH2
C          2.09250        2.03970       -0.37160
C          0.91460        2.17560       -1.30760
Br         1.66670        0.67590        0.95230
H          2.98390        1.69080       -0.93890
C          1.06140        1.88040       -2.77470
C          2.42200        3.38930        0.30390
C          3.58560        3.24020        1.26050
C          3.46490        3.50000        2.56700
O         -0.17080        2.52500       -0.86560
N          2.74700        4.39460       -0.71030
H          1.51870        3.73100        0.85940
H          4.54800        2.91340        0.87540
H          2.52180        3.82890        2.99190
H          4.31950        3.38390        3.22420
F         -0.14480        2.06440       -3.42870
F          2.00390        2.72750       -3.32730
F          1.46850        0.57040       -2.94550
H          3.60720        4.11360       -1.23650
H          2.92410        5.31460       -0.24530
