18
TSA8_9_CCl3_I_CN
C          1.60860        0.05110       -0.02210
C          1.45610        1.26970       -0.79950
C          1.64840       -0.47120        1.42470
H          1.54000       -0.82250       -0.65930
I          1.97640        1.00260       -2.87860
C          1.84810        4.83770        1.87190
C          1.81980        3.53810        1.55170
C          0.65860        2.94290        0.77500
O          1.05400        2.58280       -0.49950
C          3.02930        5.39350        2.48640
H          1.01060        5.49340        1.62690
H          2.67920        2.92530        1.82000
H         -0.12270        3.70180        0.66120
H          0.14670        2.10370        1.28840
Cl         1.43290        0.60210        2.82630
Cl         0.67620       -1.92170        1.77490
Cl         3.33500       -1.06050        1.47620
N          3.96900        5.85680        2.97810
