20
TSA8_9_CHF2_Br_CBr3
C          1.82970       -0.04010       -0.06200
C          1.03890       -1.11740        0.09210
C          2.34860        0.48130       -1.37860
H          2.11630        0.51700        0.82500
Br         0.47950       -1.57180        1.87810
C         -0.31220       -4.81560       -2.42120
C         -0.44590       -3.48780       -2.26990
C         -0.32570       -2.83220       -0.92470
O          0.64640       -1.85740       -0.97570
C         -0.43210       -5.48580       -3.76530
H         -0.11990       -5.43390       -1.54840
H         -0.65420       -2.86000       -3.13250
H         -0.07580       -3.58450       -0.14420
H         -1.29880       -2.36050       -0.67090
F          3.73090        0.49150       -1.35050
F          1.92840       -0.26580       -2.46420
H          1.98750        1.52270       -1.51130
Br        -0.24210       -7.40420       -3.56370
Br        -2.16450       -5.13070       -4.56220
Br         0.96320       -4.85960       -4.95820
