20
TSA8_9_CHF2_Br_CBr3
C          1.39510       -2.40910       -1.18210
C          0.80630       -1.89980        0.15030
C          1.83710       -1.18510       -2.01200
H          2.31800       -2.98070       -0.94550
Br         0.75550       -3.22850        1.58270
C          0.33130       -3.35650       -1.83400
C         -1.01430       -2.61880       -1.93290
C         -1.41070       -2.08310       -0.55320
O         -0.42370       -1.21310       -0.02260
C          0.69110       -4.07100       -3.16960
H          0.19280       -4.18480       -1.10560
H         -0.95610       -1.77940       -2.65640
H         -1.62660       -2.91840        0.14760
H         -2.35870       -1.51650       -0.66070
F          2.65650       -0.37730       -1.24100
F          2.57510       -1.57490       -3.11070
H          0.96930       -0.57620       -2.33610
Br         2.39230       -4.99560       -3.02980
Br        -0.64780       -5.43500       -3.52990
Br         0.70870       -2.93520       -4.75090
