20
TSA8_9_CF3_F_CHF2
C          1.53980        1.16190        1.98180
C          1.29990        1.40080        0.50620
C          1.59770       -0.36260        2.25350
H          2.55400        1.56270        2.20430
F          2.25460        2.01660       -0.23900
C          0.52520        2.00400        2.83100
C         -0.92100        1.60550        2.60790
C         -1.81130        2.44450        2.06850
O          0.26440        1.03830       -0.03100
C          0.82380        2.01240        4.34250
H          0.67080        3.05750        2.49590
H         -1.25570        0.61620        2.90100
H         -1.52810        3.44710        1.76360
H         -2.83940        2.12660        1.92870
F          2.53400       -0.93980        1.41220
F          1.99710       -0.62580        3.54810
F          0.37620       -0.96720        2.02030
F          0.04060        2.97180        4.96100
F          0.54720        0.79290        4.93230
H          1.88830        2.27660        4.51730
