22
TSA8_9_NH2_CHF2_CF3
C          2.71660        2.08600       -0.13530
C          1.21180        1.71460        0.11440
N          3.60310        1.00520        0.31020
H          2.89810        2.21510       -1.22640
C          0.36470        1.97450       -1.13380
C          3.02350        3.41730        0.58360
C          2.69970        3.30180        2.08710
C          1.47440        2.40120        2.32560
O          0.62050        2.42550        1.20450
C          4.44200        3.95560        0.33590
H          2.31480        4.16490        0.16180
H          3.53730        2.91040        2.70440
H          0.93470        2.75460        3.22800
H          1.76590        1.35140        2.55220
H          3.50910        0.80380        1.32880
H          3.37900        0.13350       -0.22130
F         -0.93930        1.57820       -0.90330
F          0.37920        3.32070       -1.45530
H          0.76410        1.39160       -1.99050
F          5.39600        3.08970        0.84020
F          4.65320        4.11590       -1.02240
F          4.58600        5.18680        0.95090
