21
TSA8_9_OH_Me_CCl3
C          2.90190        1.11170       -0.66540
C          1.53890        0.61640       -1.10230
O          3.13230        0.72580        0.66530
H          3.66390        0.63870       -1.32560
C          1.41750       -0.33170       -2.25740
C          3.03620        2.65620       -0.82500
C          2.06030        3.37570        0.08960
C          1.08510        4.15650       -0.38620
O          0.53190        0.97420       -0.50980
C          4.48310        3.18210       -0.58240
H          2.79440        2.89200       -1.88710
H          2.15350        3.25580        1.16510
H          0.95400        4.30570       -1.45330
H          0.40720        4.65440        0.29940
H          3.35890       -0.24100        0.65030
H          1.83080        0.14210       -3.17220
H          0.35410       -0.59620       -2.43970
H          1.98490       -1.26030       -2.03790
Cl         4.55480        4.94110       -0.89120
Cl         5.06330        2.90360        1.08650
Cl         5.64310        2.42170       -1.70830
