19
TSA8_9_CN_Br_OMe
C          2.87060        1.54660       -0.42550
C          1.59310        1.02690       -1.15860
C          2.58220        1.36190        1.01120
H          3.75400        0.90460       -0.67930
Br         1.89080       -0.48540       -2.32550
C          3.09470        3.04150       -0.85980
C          1.82330        3.80400       -0.51100
C          0.56470        3.09420       -0.98910
O          0.88250        2.03300       -1.86520
O          4.11580        3.90440       -0.36170
H          3.20740        3.01060       -1.96840
H          1.76900        3.94430        0.59440
H         -0.02330        3.86180       -1.53350
H         -0.06100        2.74420       -0.13630
N          2.35090        1.22600        2.12440
C          5.33400        3.36140        0.05290
H          6.07760        4.19010       -0.03680
H          5.71870        2.53960       -0.58270
H          5.27400        3.13190        1.13460
