21
TSA8_9_CN_CF3_CBr3
C          1.67560       -0.07370       -0.04820
C          1.52060       -1.00370       -1.02880
C          1.82470        1.34840       -0.18690
H          1.57660       -0.40610        0.97630
C          1.52540       -2.43790       -0.60030
C          3.17850        0.79860       -4.73390
C          2.77520        0.70080       -3.45390
C          1.34140        0.42460       -3.07670
O          1.28170       -0.75490       -2.35980
C          4.62470        1.04130       -5.10850
H          2.45130        0.69410       -5.53390
H          3.51030        0.83490       -2.66800
H          0.72170        0.32500       -3.99840
H          0.89650        1.25180       -2.50060
N          1.94450        2.49970       -0.26850
F          0.22170       -2.82810       -0.49480
F          2.15910       -3.22580       -1.54730
F          2.19090       -2.61300        0.61180
Br         4.77430        1.39980       -7.00930
Br         5.40090        2.55020       -4.15960
Br         5.66550       -0.54470       -4.71870
