20
TSA8_9_Me_I_CBr3
C          1.50960       -0.73060        2.33100
C          1.22830        0.58540        1.63830
C          1.66690       -1.82790        1.26680
H          2.49450       -0.61330        2.82760
I          2.60110        2.18190        1.80130
C          0.43410       -1.00750        3.44110
C         -0.95490       -1.16260        2.84540
C         -1.94000       -0.29670        3.10470
O          0.21940        0.74230        0.96780
C          0.73520       -2.19720        4.40630
H          0.45480       -0.10100        4.08940
H         -1.16360       -2.00160        2.18910
H         -1.78180        0.55770        3.75510
H         -2.91930       -0.44240        2.66080
H          2.02520       -2.77190        1.71250
H          2.43830       -1.52240        0.52720
H          0.71630       -2.00470        0.72160
Br         2.50010       -2.04540        5.20620
Br        -0.52540       -2.15830        5.88760
Br         0.57000       -3.96920        3.61510
