19
TSA8_9_Me_Br_NO2
C          1.52570       -0.75520        2.15250
C          1.12410        0.61060        1.56180
C          1.27960       -1.84050        1.08890
H          2.61790       -0.75500        2.36140
Br         1.88260        2.15130        2.49130
C          0.74730       -0.95300        3.48180
C         -0.75540       -0.75490        3.24730
C         -0.98090        0.60950        2.58290
O         -0.27770        0.72010        1.35410
N          1.01270       -2.23210        4.11860
H          1.07850       -0.14810        4.17670
H         -1.16530       -1.55740        2.59840
H         -0.71000        1.43570        3.27530
H         -2.06630        0.72010        2.37960
H          1.63390       -2.83030        1.43790
H          1.86030       -1.59840        0.17300
H          0.20960       -1.91210        0.80600
O          0.66360       -3.25540        3.61240
O          1.57950       -2.26320        5.30570
