20
TSA8_9_NO2_NO2_NO2
C          2.75360        0.74030       -1.22450
C          1.46990       -0.02910       -1.50930
N          2.83630        1.05510        0.19480
H          3.62210        0.09730       -1.48920
N          1.49290       -1.30450       -1.99260
C          2.88130        2.00160       -2.12990
C          1.81490        3.04910       -1.87560
C          0.92970        3.40590       -2.81100
O          0.39350        0.51350       -1.29460
N          4.19210        2.60740       -1.97620
H          2.79160        1.64140       -3.18140
H          1.76750        3.54200       -0.91050
H          0.93440        2.95010       -3.79580
H          0.18710        4.16590       -2.58940
O          3.73450        0.61820        0.84900
O          1.89840        1.76420        0.78670
O          0.46990       -1.88320       -2.20560
O          2.63300       -1.91850       -2.23010
O          4.53140        3.07290       -0.92950
O          5.01510        2.65660       -3.00170
