20
TSA8_9_NO2_NO2_NO2
C          1.94660        0.03620       -0.20910
C          1.47960        0.01320       -1.50350
N          1.99680        1.09850        0.74790
H          2.33730       -0.90270        0.17260
N          1.52540       -1.23750       -2.20410
C          3.23760        2.70110       -3.11280
C          2.37940        2.96840       -2.11260
C          0.97380        2.43050       -2.14140
O          0.97470        1.05450       -2.24220
N          4.57330        3.19200       -3.12370
H          2.90430        2.08690       -3.94630
H          2.68840        3.58280       -1.27290
H          0.47600        2.83340       -3.04840
H          0.34070        2.77640       -1.30780
O          2.49290        0.87810        1.81100
O          1.40640        2.25150        0.57120
O          1.14310       -1.29460       -3.33390
O          1.99090       -2.33170       -1.63700
O          4.98830        3.87020       -2.23330
O          5.36280        2.89580       -4.13270
