20
TSA8_9_NO2_NO2_NO2
C          2.74640        0.85010       -1.33630
C          1.30090        0.35760       -1.65940
N          2.81310        1.28110        0.05070
H          3.47670        0.02110       -1.48940
N          1.27950       -1.06280       -1.94750
C          3.13650        1.97280       -2.32650
C          2.06220        3.07210       -2.39590
C          0.65220        2.45770       -2.32370
O          0.68710        1.09860       -2.71100
N          4.45310        2.52330       -2.06480
H          3.14480        1.49390       -3.33290
H          2.15190        3.85950       -1.61700
H         -0.03360        3.03090       -2.98060
H          0.22770        2.55320       -1.29660
O          3.56130        0.73800        0.80680
O          2.04200        2.24990        0.49640
O          0.86760       -1.46650       -2.99320
O          1.69310       -1.92050       -1.04000
O          4.67790        3.11040       -1.04940
O          5.40860        2.39030       -2.95950
