24
TSA8_9_CHF2_OMe_CF3
C          3.03330       -1.65520        0.15560
C          2.06010       -1.48800        1.30210
C          2.78960       -0.53900       -0.88960
H          4.04550       -1.48020        0.58290
O          2.54650       -1.20170        2.53680
C          2.99950       -3.13720       -0.35630
C          1.69740       -3.49230       -1.04810
C          0.85140       -4.40030       -0.55310
O          0.85640       -1.61430        1.12040
C          4.18420       -3.52490       -1.26710
H          3.11970       -3.76880        0.55480
H          1.44150       -3.00490       -1.98340
H          1.06200       -4.91870        0.37650
H         -0.06720       -4.62800       -1.08440
F          3.75640       -0.53570       -1.87390
F          1.53750       -0.63540       -1.46980
H          2.84890        0.44610       -0.37880
C          1.76670       -1.08830        3.66770
H          2.41620       -0.83940        4.53200
H          1.25380       -2.05170        3.87210
H          1.01630       -0.27990        3.53780
F          4.12590       -2.89090       -2.49290
F          5.38240       -3.21390       -0.64860
F          4.15760       -4.89070       -1.49220
