24
TSA8_9_CHF2_OMe_CF3
C          2.07660       -0.14210       -0.05880
C          1.83880       -1.05450        0.92620
C          1.77290       -0.06160       -1.53900
H          2.60290        0.75090        0.27280
O          2.29610       -0.70060        2.15560
C          3.18160       -4.24620        0.06250
C          2.29930       -3.63650       -0.74660
C          0.98710       -3.15780       -0.19450
O          1.20920       -2.26970        0.83730
C          4.50590       -4.73850       -0.43520
H          2.93740       -4.38920        1.11230
H          2.52420       -3.48970       -1.79880
H          0.45210       -4.03570        0.22320
H          0.29500       -2.75320       -0.94470
F          2.96170        0.08510       -2.22830
F          1.09040       -1.11200       -2.08380
H          1.16140        0.84960       -1.70840
C          2.35480       -1.56700        3.22550
H          2.75870       -1.02970        4.10770
H          3.03530       -2.41320        2.98550
H          1.34410       -1.95720        3.46880
F          5.24480       -3.68110       -0.92830
F          5.20190       -5.32390        0.60780
F          4.31730       -5.67670       -1.43160
