21
TSA8_9_Me_OMe_Cl
C          1.84490       -0.08510       -0.09090
C          1.85140        0.79800        0.93290
C          1.74340       -1.58240        0.01160
H          1.88830        0.31350       -1.10110
O          1.87180        2.11710        0.61650
C          4.18900       -0.56350        4.76980
C          3.35350        0.14080        4.00180
C          2.61740       -0.50400        2.86480
O          1.81960        0.44220        2.24990
Cl         5.04050        0.21100        6.09600
H          4.35340       -1.62080        4.58570
H          3.20480        1.19840        4.20420
H          1.97720       -1.31860        3.26560
H          3.36560       -0.92410        2.15630
H          1.60940       -1.95660        1.04040
H          2.65030       -2.04330       -0.43110
H          0.85750       -1.91690       -0.56700
C          1.91170        3.12280        1.55810
H          1.92210        4.10480        1.04290
H          2.83290        3.03250        2.17350
H          1.01660        3.07030        2.21420
