17
TSA8_9_CN_Br_NO2
C          2.97590       -1.42140       -0.60570
C          2.15570       -1.78660        0.66360
C          2.28470       -0.44930       -1.54440
H          3.11640       -0.39380       -0.20100
Br         1.42570       -0.52500        1.90460
C          2.93790       -2.76430       -1.52960
C          1.58180       -2.86880       -2.20870
C          0.52340       -3.24870       -1.51060
O          2.18420       -2.93290        1.08760
N          4.02190       -2.98590       -2.49820
H          3.03950       -3.64730       -0.85920
H          1.42330       -2.34930       -3.15170
H          0.63670       -3.68300       -0.52770
H         -0.45860       -3.05250       -1.90430
N          1.75580        0.34020       -2.20960
O          3.86380       -2.67190       -3.64120
O          4.83740       -3.99940       -2.26820
