17
TSA8_9_OH_I_NH2
C          1.94950        0.00460        0.17570
C          1.22240       -1.08200       -0.10110
O          2.44070        0.77120       -0.81920
H          2.14540        0.27830        1.20820
I          0.49360       -2.22730        1.54140
C         -0.86880       -2.19240       -4.12370
C         -0.81320       -1.78210       -2.84760
C          0.14020       -2.39290       -1.86120
O          0.99360       -1.41050       -1.40100
N         -1.76930       -1.59770       -5.04130
H         -0.21820       -2.99000       -4.47070
H         -1.46670       -0.98400       -2.50790
H          0.74620       -3.19310       -2.33850
H         -0.45250       -2.85190       -1.04580
H          2.96050        1.56220       -0.62040
H         -2.39820       -0.83330       -4.75370
H         -1.79640       -1.92780       -6.01650
