17
TSA8_9_OH_I_NH2
C          0.70700       -0.27940       -1.80670
C          1.14740       -1.24470       -0.68110
O          1.78580        0.50750       -2.23320
H         -0.09800        0.37560       -1.39930
I          0.02620       -1.09590        1.14620
C          0.14060       -1.06640       -3.00260
C         -0.76650       -2.15860       -2.44420
C          0.11930       -3.14210       -1.64770
O          1.31740       -2.58220       -1.10890
N         -0.57490       -0.18020       -3.91990
H          0.97070       -1.55880       -3.56020
H         -1.52210       -1.67940       -1.78290
H          0.44770       -3.90680       -2.38200
H         -0.47230       -3.66950       -0.86980
H          1.94260        1.18120       -1.52030
H         -1.40010        0.24820       -3.44050
H         -0.91880       -0.73620       -4.73640
