18
TSA8_9_CN_Me_Cl
C          1.67680        0.00530       -0.08750
C          1.58370        0.78710       -1.19600
C          1.81320        0.45770        1.27990
H          1.59560       -1.06880       -0.20250
C          1.36280        0.13750       -2.53170
C          2.05890        5.21300        0.07980
C          2.03960        3.89320        0.29780
C          1.00490        3.01160       -0.33260
O          1.60900        2.14460       -1.21210
Cl         3.28560        6.21820        0.83050
H          1.32480        5.68360       -0.56910
H          2.78960        3.44130        0.93880
H          0.28470        3.61710       -0.92420
H          0.41830        2.47830        0.44020
N          1.92290        0.77160        2.38740
H          1.97150        0.63480       -3.31420
H          0.29040        0.27720       -2.79640
H          1.58180       -0.94890       -2.51810
