17
TSA8_9_Cl_CN_NO2
C          2.75810       -1.78140       -0.76010
C          1.69530       -2.17400        0.24170
Cl         2.76760        0.00400       -0.96540
H          3.72180       -2.06670       -0.28450
C          1.72010       -1.61490        1.57240
C          2.66840       -2.50660       -2.13910
C          1.61160       -1.92360       -3.06270
C          0.30540       -2.17400       -2.95030
O          0.87990       -3.04730       -0.00400
N          3.95780       -2.45370       -2.80930
H          2.44890       -3.58540       -1.97600
H          1.93210       -1.28720       -3.88460
H         -0.08880       -2.83080       -2.18890
H         -0.38760       -1.73160       -3.65910
N          1.74940       -1.17640        2.64300
O          4.45520       -1.40970       -3.10960
O          4.58070       -3.57510       -3.10750
