17
TSA8_9_Cl_CN_NO2
C          1.67010       -0.05150        0.03100
C          1.48190       -1.35780        0.35220
Cl         1.75500        0.69670       -1.56980
H          1.71040        0.66840        0.84110
C          1.39920       -1.69860        1.75080
C          2.82580       -3.35950       -3.33780
C          2.42030       -2.34310       -2.56480
C          1.09480       -2.37190       -1.87310
O          1.29500       -2.39380       -0.51350
N          4.07160       -3.33660       -4.01960
H          2.18750       -4.23140       -3.45070
H          3.05870       -1.48190       -2.41550
H          0.52340       -3.28610       -2.15490
H          0.44340       -1.52290       -2.16430
N          1.33210       -1.97690        2.87190
O          4.77490       -2.37140       -3.98870
O          4.42590       -4.37290       -4.74610
