19
TSA8_9_OMe_Cl_CN
C          2.12600       -0.53290        1.37230
C          2.51460        0.91590        1.37250
O          2.47470       -1.24760        0.18690
H          1.04600       -0.29400        1.34870
Cl         1.95020        1.91730        0.04110
C          2.42560       -1.33710        2.68730
C          1.20820       -2.18640        2.89350
C          0.08600       -1.55640        3.26690
O          2.84700        1.46580        2.41120
C          3.64500       -2.17760        2.73700
H          2.49790       -0.66260        3.56240
H          1.19340       -3.24440        2.64040
H          0.12140       -0.48460        3.48010
H         -0.85880       -2.06790        3.33020
C          1.36040       -1.98830       -0.31870
H          1.66820       -3.02680       -0.56000
H          0.95010       -1.49550       -1.22420
H          0.50880       -2.10920        0.38850
N          4.61330       -2.79480        2.82860
