19
TSA8_9_OMe_Cl_CN
C          2.62780       -0.83530        1.26540
C          1.42600        0.15850        1.38370
O          2.48640       -1.82940        0.24400
H          3.54270       -0.25420        1.01510
Cl         1.71060        1.70350        0.54040
C          2.87900       -1.46430        2.66160
C          1.56230       -1.97820        3.22800
C          0.52560       -0.82860        3.24380
O          1.05130        0.38610        2.72640
C          3.91360       -2.50630        2.71050
H          3.22670       -0.65440        3.34170
H          1.19280       -2.83710        2.62630
H          0.25080       -0.66160        4.30430
H         -0.41090       -1.11410        2.71470
C          1.15420       -2.12320       -0.15060
H          1.12000       -3.17310       -0.50810
H          0.83910       -1.46260       -0.98600
H          0.41220       -2.07360        0.66980
N          4.72180       -3.33070        2.79470
