23
TSA8_9_Et_Cl_CBr3
C          2.52590        1.39960        0.55640
C          1.26580        1.47360       -0.29280
C          2.58870       -0.03020        1.16100
H          3.36180        1.49580       -0.16930
Cl         1.38650        1.71850       -2.03070
C          2.54770        2.65180        1.51660
C          1.39070        2.61740        2.50180
C          0.39970        3.51370        2.47650
O          0.15960        1.34770        0.20910
C          3.86450        3.01980        2.27070
H          2.40660        3.50630        0.81250
H          1.36390        1.83900        3.25760
H          0.38110        4.31120        1.74090
H         -0.40420        3.44850        3.20210
C          3.98010       -0.51670        1.55720
H          2.28620       -0.74530        0.36130
H          1.86090       -0.14360        1.99160
H          4.66770       -0.46160        0.68760
H          3.91170       -1.57600        1.88390
H          4.41810        0.04640        2.38030
Br         3.75800        4.88660        2.81440
Br         4.19550        2.06760        3.93870
Br         5.42690        2.89490        1.12230
