15
TSA8_9_CN_F_F
C          1.65020       -0.01780        0.07620
C          1.66910       -0.87770        1.11940
C          1.76690       -0.38760       -1.31670
H          1.50490        1.03800        0.27140
F          1.51790       -0.37600        2.37140
C          1.89170       -4.99700       -0.98470
C          1.80770       -3.67340       -0.85260
C          1.00160       -3.02990        0.23220
O          1.81300       -2.22330        1.00080
F          2.62750       -5.52430       -1.99660
H          1.37360       -5.66080       -0.30020
H          2.33340       -3.04370       -1.55810
H          0.53770       -3.79170        0.89820
H          0.17590       -2.44500       -0.22190
N          1.85710       -0.65050       -2.44100
