17
TSA8_9_CH2F_Cl_F
C          1.65480        0.31960       -1.72100
C          1.01770       -0.86170       -1.02360
C          1.44440        1.59110       -0.87910
H          2.74850        0.11950       -1.75660
Cl         2.00850       -2.22690       -0.53290
C          1.20820        0.50220       -3.20140
C         -0.24590        0.85590       -3.41920
C         -1.24320       -0.02090       -3.27140
O         -0.16760       -0.86100       -0.73260
F          1.97360        1.51320       -3.75890
H          1.43850       -0.41910       -3.77950
H         -0.49130        1.85780       -3.75970
H         -1.05680       -1.04940       -2.98550
H         -2.26590        0.28540       -3.46520
F          2.13480        2.66150       -1.41910
H          1.82310        1.42480        0.15250
H          0.36550        1.84930       -0.81950
