17
TSA8_9_CH2F_Cl_F
C          1.70590        0.55760       -1.88720
C          1.11660       -0.74790       -1.31870
C          1.43700        1.71990       -0.91480
H          2.81040        0.46350       -1.97600
Cl         1.76330       -2.23220       -2.09100
C          1.10680        0.79980       -3.28650
C         -0.42030        0.74780       -3.22790
C         -0.84750       -0.57730       -2.58350
O         -0.30460       -0.72690       -1.27880
F          1.53060        2.00930       -3.80910
H          1.44900       -0.00880       -3.96880
H         -0.82260        1.59870       -2.63970
H         -0.57510       -1.43830       -3.23180
H         -1.95480       -0.58420       -2.50790
F          2.04530        1.46360        0.30160
H          0.35290        1.86980       -0.73620
H          1.86150        2.66130       -1.32310
