17
TSA8_9_H_CCl3_Cl
C          2.09370        1.68500        1.24520
C          1.03810        2.57800        0.63390
H          1.63130        0.68420        1.37970
H          2.95840        1.57210        0.55560
C          1.20690        3.16770       -0.75230
C          2.58630        2.20790        2.61120
C          3.56090        1.24560        3.24740
C          3.20420        0.00410        3.59580
O          0.01280        2.78900        1.26540
Cl         3.37980        3.79940        2.43060
H          1.72340        2.33310        3.30150
H          4.57940        1.56510        3.44680
H          2.19510       -0.35920        3.43150
H          3.92820       -0.65840        4.05860
Cl         2.64130        4.22060       -0.82610
Cl         1.39800        1.85630       -1.94360
Cl        -0.21300        4.14200       -1.23130
