17
TSA8_9_H_CCl3_Cl
C          3.04950        1.78550        1.02810
C          1.50440        1.59810        0.85450
H          3.52390        0.78050        1.05660
H          3.50080        2.34140        0.18010
C          0.85000        2.59040       -0.12770
C          3.33340        2.47110        2.36560
C          2.74770        1.63770        3.51890
C          1.49700        0.86710        3.06310
O          0.79480        1.61500        2.09560
Cl         5.07850        2.74450        2.61220
H          2.83000        3.45940        2.35930
H          3.46200        0.88780        3.92340
H          0.84870        0.65590        3.93830
H          1.77870       -0.12650        2.64010
Cl         1.00330        4.28020        0.42350
Cl         1.57120        2.44020       -1.75290
Cl        -0.88450        2.20970       -0.28490
