19
TSA8_9_NO2_I_CHF2
C          1.74740       -1.77280        1.57790
C          1.37540       -0.30720        1.56840
N          1.89300       -2.23330        0.19960
H          2.73990       -1.86290        2.07280
I          2.66300        1.12660        2.42990
C          0.74340       -2.57980        2.46830
C         -0.68090       -2.56110        1.94410
C         -1.67460       -1.98490        2.62890
O          0.33450        0.06830        1.05190
C          1.20230       -4.02680        2.74690
H          0.76460       -2.07760        3.46360
H         -0.91860       -3.02650        0.99450
H         -1.49560       -1.50540        3.58640
H         -2.68300       -1.98930        2.22860
O          2.70600       -1.71400       -0.50440
O          1.13840       -3.18560       -0.30390
F          0.36620       -4.60670        3.68520
F          1.19770       -4.81610        1.61380
H          2.23080       -4.01710        3.16640
