19
TSA8_9_NO2_I_CHF2
C          2.04680        0.02350        0.15500
C          1.26170       -0.21270        1.22070
N          2.46090       -0.98800       -0.76230
H          2.37770        1.04290       -0.02170
I          0.75190        1.44870        2.45420
C         -0.05190       -3.98650        3.62040
C         -0.30370       -3.25140        2.52650
C         -0.07390       -1.76820        2.50180
O          0.81600       -1.46520        1.49510
C         -0.28200       -5.46780        3.63720
H          0.32570       -3.51250        4.52260
H         -0.68670       -3.73030        1.62910
H          0.32570       -1.41630        3.47840
H         -1.04300       -1.26100        2.30470
O          3.15220       -0.68870       -1.68800
O          2.08890       -2.24230       -0.61890
F         -1.61190       -5.74420        3.37610
F          0.51240       -6.07980        2.68490
H         -0.02010       -5.87220        4.63750
