19
TSA8_9_NH2_NO2_CN
C          2.40720        0.82390        1.39540
C          1.41820        1.87000        0.91290
N          1.96950       -0.48930        0.87680
H          3.40490        1.01460        0.94790
N          1.73200        2.74100       -0.08060
C          2.50510        0.92160        2.96680
C          1.91620       -0.28940        3.61920
C          0.60070       -0.33200        3.84830
O          0.31500        1.93160        1.44290
C          3.81440        1.28650        3.53560
H          1.90810        1.79830        3.31200
H          2.52470       -1.17590        3.77940
H         -0.02320        0.52970        3.62610
H          0.13340       -1.23510        4.21400
H          2.72590       -1.21020        0.90350
H          1.07970       -0.85160        1.29500
O          0.95510        3.59020       -0.39880
O          2.86830        2.63300       -0.73510
N          4.81270        1.63680        4.00780
