19
TSA8_9_NH2_NO2_CN
C          1.58490        0.03840        0.03350
C          1.40070        1.28980        0.77640
N          1.64190       -1.28920        0.49240
H          1.51740        0.12120       -1.03830
N          1.65150        2.48800        0.01820
C          2.51510        1.23760        4.78570
C          2.27360        0.39120        3.77110
C          0.94440        0.53060        3.05880
O          1.04750        1.54560        2.11910
C          3.86000        1.70830        5.00370
H          1.72030        1.81630        5.24340
H          3.09580       -0.08190        3.24740
H          0.18090        0.88080        3.75600
H          0.47100       -0.37750        2.66530
H          2.66880       -1.40830        0.45510
H          1.27130       -1.66420        1.37420
O          1.62040        3.55480        0.55720
O          2.03490        2.42960       -1.24230
N          4.92690        2.10980        5.20320
