19
TSA8_9_NH2_NO2_CN
C          2.59040        0.64610        1.58910
C          1.21760        1.08440        1.00560
N          2.73590       -0.81780        1.52140
H          3.41340        1.08700        0.98020
N          1.40320        2.30320        0.24680
C          2.64660        1.19720        3.02270
C          1.59560        0.48310        3.85640
C          0.25310        0.43010        3.10040
O          0.19380        1.31390        1.98750
C          3.96580        1.17670        3.66360
H          2.37520        2.27350        2.98740
H          1.90870       -0.56140        4.09770
H         -0.51660        0.73270        3.84000
H         -0.01730       -0.60000        2.78590
H          2.94230       -1.09100        0.53230
H          1.83470       -1.29750        1.74920
O          1.67070        3.32650        0.80230
O          1.50750        2.23390       -1.06130
N          4.98810        1.18160        4.20590
