18
TSA8_9_Me_CN_H
C          1.25700       -1.54030       -0.65700
C          2.18000       -1.87440        0.48480
C          1.78900       -0.36510       -1.49010
H          0.29600       -1.22310       -0.19730
C          1.63290       -1.90790        1.81960
C          1.00400       -2.79380       -1.52950
C         -0.39730       -2.78010       -2.08510
C         -1.44510       -2.87130       -1.25070
O          3.32590       -2.24540        0.28400
H          1.77190       -2.86870       -2.33170
H          1.07120       -3.72280       -0.92090
H         -0.56690       -2.71960       -3.15440
H         -1.29120       -2.95640       -0.17540
H         -2.46160       -2.87260       -1.62370
H          1.12100       -0.16460       -2.35420
H          2.80700       -0.59060       -1.87860
H          1.84630        0.55200       -0.86610
N          1.18790       -1.95600        2.88730
