18
TSA8_9_Me_CN_H
C          1.70920       -0.04400        0.09220
C          1.49790       -1.33910        0.40040
C          1.80510        0.42330       -1.34270
H          1.74440        0.70720        0.87550
C          1.31680       -1.74330        1.77260
C          0.02680       -4.69890       -2.54560
C          0.33730       -3.43430       -2.28180
C          0.26410       -2.87540       -0.89610
O          1.44440       -2.23860       -0.60550
H          0.06190       -5.05680       -3.56770
H         -0.28520       -5.37030       -1.75240
H          0.62260       -2.76820       -3.09450
H          0.00740       -3.62920       -0.11970
H         -0.54260       -2.12130       -0.93920
H          1.40520       -0.32930       -2.05930
H          2.86390        0.62890       -1.59010
H          1.20010        1.34070       -1.47880
N          1.17080       -2.07080        2.87480
