18
TSA8_9_Me_CN_H
C          1.29430       -1.45290       -1.13180
C          1.46120       -2.15740        0.25940
C          2.24690       -0.32960       -1.54440
H          0.31690       -0.93020       -1.17930
C          1.43310       -1.29960        1.44670
C          1.25680       -2.63120       -2.10700
C         -0.11110       -3.29470       -1.89730
C         -0.52900       -3.24190       -0.40260
O          0.61350       -3.30700        0.44010
H          1.38190       -2.35510       -3.17280
H          2.06700       -3.36620       -1.86330
H         -0.87560       -2.70120       -2.45510
H         -1.25070       -4.05490       -0.19110
H         -1.08600       -2.30210       -0.16840
H          1.98250       -0.05280       -2.59340
H          3.32380       -0.57430       -1.50550
H          2.02830        0.57320       -0.93200
N          1.42050       -0.65840        2.40970
