20
TSA8_9_OMe_NH2_I
C          0.76010       -1.36490       -0.36890
C          1.70900       -1.20680        0.79880
O          1.53170       -1.45660       -1.55640
H          0.04530       -0.50530       -0.39780
N          1.63340       -0.12740        1.61170
C         -0.11810       -2.63510       -0.25440
C         -1.06480       -2.61900        0.92910
C         -0.65640       -2.67350        2.20130
O          2.55870       -2.06130        1.00520
I         -1.30970       -2.80890       -2.03920
H          0.51920       -3.54490       -0.20570
H         -2.13480       -2.58600        0.74640
H          0.39170       -2.73700        2.46530
H         -1.38860       -2.66990        3.00230
C          1.64290       -0.19460       -2.17790
H          2.35580       -0.28190       -3.02310
H          2.05420        0.57000       -1.48160
H          0.66370        0.12320       -2.59870
H          2.28410       -0.02460        2.40440
H          0.92700        0.60580        1.45440
