23
TSA8_9_Me_CBr3_CH2F
C          2.68290       -1.74630        0.03770
C          1.38390       -1.51880        0.88780
C          2.62780       -0.84030       -1.20250
H          3.58260       -1.44410        0.61730
C          1.63190       -0.93550        2.29070
C          2.80810       -3.25800       -0.28790
C          1.52120       -3.79370       -0.94340
C          0.27870       -3.12700       -0.33170
O          0.56500       -2.68180        0.97660
C          4.06310       -3.66390       -1.07490
H          2.88740       -3.76220        0.70150
H          1.48050       -3.66270       -2.04660
H         -0.56210       -3.85070       -0.32090
H         -0.06830       -2.27360       -0.96060
H          1.77290       -1.09770       -1.86030
H          3.56640       -0.91020       -1.78680
H          2.51970        0.21960       -0.88920
Br         2.57610        0.75850        2.19550
Br        -0.06750       -0.59520        3.15980
Br         2.64660       -2.16720        3.39760
F          4.03970       -3.17290       -2.36780
H          4.11990       -4.77200       -1.13030
H          4.97310       -3.29570       -0.55600
