21
TSA8_9_CBr3_OMe_F
C          1.00990       -0.83310        0.81380
C          2.30220       -1.41430        1.35540
C          1.28300        0.36570       -0.14260
H          0.51800       -1.61090        0.18830
O          3.10640       -0.65920        2.14970
C          0.04090       -0.48520        1.98120
C         -0.32870       -1.69940        2.79850
C         -0.99100       -2.73520        2.27220
O          2.60690       -2.56410        1.06890
F          0.61080        0.45340        2.82430
H         -0.90300       -0.05840        1.58310
H         -0.06200       -1.72960        3.85110
H         -1.28880       -2.74080        1.22870
H         -1.24660       -3.58780        2.89290
Br        -0.36580        0.98580       -0.96490
Br         2.12720        1.89970        0.71000
Br         2.43790       -0.19470       -1.60340
C          4.32200       -1.05500        2.67350
H          5.11200       -0.36080        2.31870
H          4.60120       -2.08790        2.37460
H          4.27510       -1.00550        3.78060
