21
TSA8_9_CBr3_OMe_F
C          0.80870       -0.72960        1.04410
C          1.90580       -1.46280        1.87140
C          1.26620        0.59090        0.34460
H          0.50880       -1.42770        0.23110
O          3.07170       -1.66470        1.12010
C         -0.42880       -0.53360        1.96550
C         -0.68060       -1.74710        2.87530
C          0.10370       -2.96300        2.38550
O          1.50330       -2.72150        2.42330
F         -0.30120        0.57880        2.78010
H         -1.31930       -0.37980        1.32170
H         -0.29420       -1.53430        3.89770
H         -0.21820       -3.27720        1.36940
H         -0.12010       -3.80670        3.07170
Br        -0.21980        1.45020       -0.57040
Br         2.03660        1.87940        1.58290
Br         2.58680        0.26080       -1.04520
C          4.15970       -1.31430        1.93930
H          5.08660       -1.36470        1.33190
H          4.27210       -2.03570        2.77950
H          4.07840       -0.26860        2.31340
