18
TSA8_9_OH_Cl_CH2F
C          1.93820        0.07780        0.12970
C          1.17720       -1.00010        0.33980
O          2.50710        0.29010       -1.07490
H          2.10010        0.79420        0.93020
Cl         0.45540       -1.22180        1.93760
C         -0.81580       -3.78790       -2.82320
C         -0.78270       -2.83940       -1.87590
C          0.10910       -2.95350       -0.67420
O          0.98900       -1.88830       -0.67270
C         -1.70100       -3.65370       -4.02440
H         -0.19220       -4.67340       -2.73450
H         -1.40950       -1.95700       -1.97250
H          0.69490       -3.89680       -0.70150
H         -0.52950       -2.97280        0.23330
H          3.04950        1.07490       -1.23210
F         -3.02440       -3.56930       -3.63200
H         -1.57460       -4.53960       -4.68160
H         -1.42550       -2.74220       -4.59600
