18
TSA8_9_CH2F_Br_OH
C          1.66510       -0.98930       -1.62200
C          0.99420       -1.28440       -0.29890
C          1.59570        0.52380       -1.90440
H          2.73780       -1.25790       -1.49930
Br         1.99900       -2.07150        1.12560
C          1.14050       -1.85330       -2.81090
C         -0.30470       -1.61640       -3.20420
C         -1.34140       -2.04710       -2.47930
O         -0.16530       -0.96620       -0.09150
O          1.95210       -1.59330       -3.92890
H          1.26550       -2.92810       -2.53630
H         -0.51420       -1.11870       -4.14690
H         -1.19940       -2.59910       -1.55770
H         -2.35440       -1.86970       -2.82540
F          2.32980        0.85530       -3.02910
H          2.01990        1.08530       -1.04400
H          0.54340        0.84840       -2.05030
H          1.87000       -2.37340       -4.53890
