18
TSA8_9_CH2F_Br_OH
C          1.66940       -1.07410       -1.87880
C          1.01530       -1.45380       -0.53640
C          1.62620        0.45460       -2.06200
H          2.74280       -1.36530       -1.86670
Br         1.46100       -3.24590        0.09730
C          0.95030       -1.84040       -3.00990
C         -0.56070       -1.59600       -2.93050
C         -1.04910       -1.95300       -1.52070
O         -0.38200       -1.19250       -0.52340
O          1.45220       -1.45740       -4.26290
H          1.14040       -2.92840       -2.85430
H         -0.80390       -0.53680       -3.15640
H         -0.94410       -3.04300       -1.33030
H         -2.13500       -1.73160       -1.46510
F          2.33170        1.06910       -1.04230
H          0.58830        0.84500       -2.04980
H          2.09790        0.73670       -3.02680
H          1.14380       -2.14060       -4.91390
