18
TSA8_9_OMe_I_F
C          1.47720        0.21110       -0.08460
C          1.07240       -0.77490        0.71920
O          1.61960       -0.01240       -1.41200
H          1.67500        1.19750        0.32930
I          0.84530       -0.34900        2.79270
C         -0.99190       -4.72640       -0.63060
C         -0.94350       -3.48390       -0.14050
C          0.15060       -3.03660        0.78450
O          0.82950       -1.99870        0.18090
F         -1.99430       -5.08530       -1.47380
H         -0.23700       -5.46130       -0.36770
H         -1.71150       -2.77000       -0.42400
H          0.86550       -3.86410        0.98430
H         -0.30940       -2.73380        1.74630
C          1.94650        0.98840       -2.29740
H          2.00410        0.56260       -3.32020
H          2.93090        1.43020       -2.03340
H          1.16410        1.77730       -2.28280
