18
TSA8_9_OMe_I_F
C          0.46290       -1.13590       -0.80850
C          1.20310       -1.09620        0.55300
O          1.35720       -0.91170       -1.88250
H         -0.35110       -0.37190       -0.77530
I          0.27690        0.14260        2.05150
C         -0.21320       -2.50180       -1.01480
C         -0.80150       -2.94560        0.31460
C          0.38100       -3.18960        1.28110
O          1.53480       -2.37820        1.04940
F         -1.18820       -2.41330       -1.99220
H          0.53440       -3.26640       -1.32600
H         -1.46930       -2.13820        0.68780
H          0.70560       -4.23570        1.09930
H          0.04690       -3.12850        2.33830
C          1.56660        0.47240       -2.06260
H          2.30200        0.61120       -2.88090
H          2.00040        0.94050       -1.15140
H          0.62940        0.98360       -2.37590
