18
TSA8_9_CBr3_OH_F
C          1.56410       -1.48710       -0.48310
C          0.66440       -0.96080        0.62640
C          1.54680       -0.53030       -1.72170
H          2.60450       -1.45200       -0.09090
O          1.18300       -0.62520        1.82810
C          1.31410       -3.00350       -0.78600
C         -0.04140       -3.38680       -1.33280
C         -1.15070       -3.40880       -0.58710
O         -0.52820       -0.78830        0.43540
F          2.27090       -3.45570       -1.67590
H          1.47490       -3.58770        0.14630
H         -0.11300       -3.71100       -2.36720
H         -1.13220       -3.14890        0.46490
H         -2.09320       -3.71750       -1.02700
Br         1.99970        1.28030       -1.16870
Br         2.88660       -1.00610       -3.04800
Br        -0.16990       -0.43570       -2.63390
H          2.12330       -0.72680        2.02910
