17
TSA8_9_Cl_CHF2_Cl
C          1.96810        1.95510        0.32040
C          0.80160        2.36200       -0.54810
Cl         1.63650        0.32440        0.97890
H          2.88920        1.89050       -0.30030
C          0.99670        2.61530       -2.01700
C          2.20110        2.96530        1.46330
C          3.37400        2.54790        2.31400
C          3.24630        2.29130        3.61940
O         -0.31190        2.47420       -0.05510
Cl         2.55050        4.59180        0.81080
H          1.27830        3.03420        2.08150
H          4.35280        2.45320        1.85200
H          2.28540        2.37440        4.11810
H          4.11290        1.99310        4.20040
F         -0.20270        2.95570       -2.61810
F          1.90020        3.64530       -2.20060
H          1.39000        1.69610       -2.49930
