24
TSA8_9_CHF2_Me_OMe
C          1.80740        0.17050        0.02040
C          1.46990        1.44540        0.35840
C          1.83430       -0.43680       -1.36600
H          2.08610       -0.52580        0.80190
C          1.05670        2.46830       -0.66290
C          4.26910        1.75740        3.61820
C          3.49130        1.16360        2.69150
C          1.98600        1.22520        2.76870
O          1.47430        1.87110        1.65680
O          5.62950        1.74000        3.58040
H          3.80150        2.28510        4.44420
H          3.93880        0.63230        1.86060
H          1.67300        1.79720        3.66810
H          1.55220        0.20770        2.86610
F          1.47120        0.43140       -2.37620
F          3.10870       -0.90440       -1.62500
H          1.13280       -1.29680       -1.38440
H          0.82590        3.43360       -0.16530
H          0.14340        2.13340       -1.19770
H          1.88380        2.64670       -1.38190
C          6.40600        1.15640        2.60010
H          7.47600        1.31460        2.84390
H          6.19420        1.62470        1.61490
H          6.21010        0.06390        2.55390
