20
TSA8_9_Et_H_Br
C          1.77510        0.25200        0.11790
C          1.32280        1.03630        1.12730
C          1.87600       -1.25060        0.01140
H          2.10780        0.78300       -0.77110
H          1.34200        2.10380        0.93010
C          2.48070       -1.13490        4.71140
C          2.14150       -0.97400        3.42750
C          0.76260       -0.51780        3.02060
O          0.82200        0.68540        2.34990
Br         4.24230       -1.71090        5.18040
H          1.76890       -0.94330        5.50850
H          2.88470       -1.17490        2.66710
H          0.14570       -0.35790        3.93120
H          0.21490       -1.27490        2.42810
C          3.31670       -1.66030       -0.28140
H          1.23670       -1.58030       -0.83490
H          1.54020       -1.79610        0.89840
H          3.66870       -1.18960       -1.22450
H          3.37570       -2.76340       -0.39510
H          3.98730       -1.35050        0.54750
