20
TSA8_9_Et_H_Br
C          2.27040        0.04050        1.36080
C          0.90970        0.80180        1.45680
C          2.12400       -1.14450        0.36370
H          3.01480        0.73650        0.91330
H          1.13790        1.88930        1.46810
C          2.69200       -0.30690        2.80540
C          1.63530       -1.19090        3.47860
C          0.21830       -0.80410        3.01630
O          0.16510        0.55730        2.65280
Br         4.48730       -1.00330        3.06070
H          2.70200        0.65760        3.36040
H          1.77940       -2.27650        3.28900
H         -0.49620       -1.00870        3.84000
H         -0.13330       -1.42720        2.16710
C          3.43020       -1.84780        0.00150
H          1.72370       -0.72570       -0.58620
H          1.40690       -1.90810        0.71810
H          4.17300       -1.11570       -0.38040
H          3.23180       -2.59630       -0.79470
H          3.84540       -2.40070        0.86270
