24
TSA8_9_CBr3_CN_Et
C          3.08620       -1.02280       -0.99310
C          1.66630       -1.61120       -0.69840
C          2.87330        0.49500       -1.36280
H          3.65880       -1.00110       -0.03970
C          1.59270       -2.69930        0.28850
C          3.79270       -2.06060       -1.95450
C          2.91410       -2.35190       -3.17020
C          1.54900       -2.83600       -2.68370
O          0.90910       -1.86800       -1.86470
C          5.29490       -2.03810       -2.36460
H          3.77610       -3.00380       -1.35940
H          2.83560       -1.47400       -3.83900
H          1.66100       -3.80670       -2.14700
H          0.91660       -3.04220       -3.57220
Br         1.89410        1.36420        0.08690
Br         4.49800        1.52530       -1.45140
Br         1.83000        0.85950       -2.96670
N          1.55530       -3.52820        1.09210
C          5.80800       -0.98310       -3.34430
H          5.45590       -3.00710       -2.89580
H          5.95060       -2.05780       -1.46810
H          5.15740       -0.89020       -4.23660
H          6.82050       -1.29110       -3.68900
H          5.95430       -0.01250       -2.86340
