27
TSA8_9_Me_Et_OMe
C          2.84680        1.24030       -0.05730
C          1.56960        1.45300       -0.87370
C          2.53960        0.52590        1.27360
H          3.49930        0.53420       -0.61770
C          1.62730        1.98030       -2.29260
C          3.67070        2.55250        0.13950
C          2.86820        3.70420        0.72200
C          2.42720        3.74080        1.98260
O          0.48430        1.16740       -0.38410
O          4.17980        2.93940       -1.12800
H          4.51670        2.30620        0.82690
H          2.66960        4.56580        0.09040
H          1.87320        4.60550        2.33320
H          2.62740        2.94170        2.68390
H          1.81760        1.08840        1.89420
H          3.47490        0.35530        1.84810
H          2.08450       -0.46680        1.06590
C          0.25010        2.07860       -2.95200
H          2.26310        1.30140       -2.89960
H          2.07070        2.99580       -2.30010
H         -0.23170        1.07840       -2.99340
H          0.35990        2.46300       -3.98800
H         -0.39930        2.77690       -2.38200
C          5.38510        3.66330       -0.98980
H          5.72200        3.97650       -1.99900
H          6.19030        3.02740       -0.56030
H          5.23690        4.59010       -0.39310
