24
TSA8_9_OMe_NH2_OMe
C          0.93950       -1.36120       -0.73940
C          1.75820       -1.46970        0.52930
O          1.83100       -1.21380       -1.83530
H          0.23030       -0.50120       -0.64670
N          1.57790       -0.59450        1.54600
C          0.05740       -2.60400       -1.00690
C         -1.01640       -2.80000        0.05430
C         -0.75170       -3.13250        1.32200
O          2.58930       -2.35950        0.63650
O         -0.55990       -2.40170       -2.26900
H          0.72990       -3.49400       -1.03770
H         -2.05850       -2.69110       -0.23280
H          0.26050       -3.28840        1.67380
H         -1.56730       -3.27000        2.02370
C          1.91170        0.13280       -2.24970
H          2.50100        0.17180       -3.18900
H          2.43870        0.74850       -1.48940
H          0.90980        0.55040       -2.49650
H          2.13630       -0.67660        2.40940
H          0.88200        0.16100        1.47940
C         -1.05380       -3.61350       -2.80560
H         -0.36360       -4.47460       -2.66290
H         -1.15980       -3.48820       -3.90260
H         -2.05840       -3.83820       -2.38960
