24
TSA8_9_OMe_NH2_OMe
C          1.58890        0.13180       -0.00560
C          1.32830       -0.80760        0.90790
O          1.66240       -0.21550       -1.31240
H          1.70170        1.17220        0.29310
N          1.19340       -0.46850        2.28170
C         -0.58840       -4.68740       -0.72740
C         -0.50480       -3.38440       -0.40450
C          0.14120       -2.91470        0.86450
O          1.17940       -2.08950        0.49400
O         -1.11320       -5.13130       -1.90340
H         -0.21280       -5.43130       -0.03210
H         -0.88060       -2.62180       -1.07830
H          0.53430       -3.76240        1.46440
H         -0.61530       -2.36690        1.47250
C          1.73760        0.71210       -2.32420
H          1.77270        0.18130       -3.29770
H          2.65190        1.33220       -2.21190
H          0.83520        1.36110       -2.30850
H          1.01080       -1.19930        2.98320
H          1.30570        0.50550        2.60020
C         -1.49190       -4.33730       -2.96810
H         -1.86070       -4.98310       -3.79100
H         -0.61750       -3.75910       -3.34070
H         -2.30520       -3.64310       -2.66950
