24
TSA8_9_OMe_NH2_OMe
C          0.81670       -1.52060       -0.57560
C          1.44760       -1.81030        0.81590
O          1.83300       -1.04190       -1.44110
H         -0.03910       -0.80930       -0.44650
N          1.62180       -0.58890        1.59460
C          0.23750       -2.83900       -1.10590
C         -0.84370       -3.34250       -0.11820
C         -0.58080       -2.85960        1.31990
O          0.80320       -2.82530        1.58850
O         -0.29510       -2.64500       -2.40380
H          1.09450       -3.55320       -1.12300
H         -1.86490       -2.99890       -0.39170
H         -1.09430       -3.53540        2.03390
H         -1.01550       -1.84590        1.48340
C          1.43310        0.15220       -2.07500
H          0.55340       -0.02150       -2.73430
H          2.26390        0.50340       -2.71820
H          1.23420        0.95650       -1.33150
H          2.12970       -0.83250        2.47440
H          2.23050        0.06810        1.05600
C         -0.58090       -3.88540       -3.01530
H          0.27040       -4.59940       -2.95070
H         -0.75780       -3.70850       -4.09610
H         -1.50960       -4.32690       -2.59390
