21
TSA8_9_NH2_CHF2_NO2
C          2.81120        1.01830       -0.99110
C          1.52020        0.35630       -1.43800
N          2.88600        1.06020        0.47320
H          3.65560        0.39310       -1.35990
C          1.56400       -0.92090       -2.22960
C          2.99030        2.43440       -1.62050
C          1.92730        3.40460       -1.14740
C          1.05250        3.96710       -1.98700
O          0.44140        0.85210       -1.14640
N          4.30060        3.00640       -1.33900
H          2.91730        2.30630       -2.72440
H          1.87510        3.66310       -0.09400
H          1.06720        3.74370       -3.04890
H          0.30940        4.66140       -1.60790
H          2.05810        1.55710        0.87290
H          2.88190        0.08250        0.84480
F          0.28520       -1.36100       -2.52310
F          2.25190       -0.71340       -3.41090
H          2.08440       -1.70250       -1.63720
O          5.09890        2.43300       -0.65920
O          4.62860        4.16410       -1.87270
