21
TSA8_9_NH2_CHF2_NO2
C          1.74120       -0.03620       -0.08540
C          1.49880        0.10950       -1.42050
N          1.78010        0.98860        0.89750
H          1.91130       -1.04200        0.28960
C          1.47100       -1.13260       -2.27380
C          3.55200        3.78800       -2.30130
C          2.87510        2.91860       -1.53010
C          1.41980        2.60270       -1.77800
O          1.26650        1.27190       -2.10630
N          4.92810        4.08270       -2.08380
H          3.04240        4.28370       -3.12320
H          3.38480        2.41960       -0.71360
H          1.05050        3.19840       -2.64010
H          0.76490        2.88590       -0.93360
H          1.60650        1.97790        0.72010
H          1.97300        0.72320        1.87360
F          0.23040       -1.24810       -2.87300
F          2.43920       -1.03170       -3.25560
H          1.66320       -2.05910       -1.69110
O          5.53880        3.56330       -1.19820
O          5.54030        4.93330       -2.87800
