17
TSA8_9_Br_CCl3_H
C          1.86140       -2.03090       -0.60240
C          0.67390       -2.50880        0.20220
Br         1.34720       -0.38020       -1.49630
H          2.70060       -1.79980        0.08900
C          0.75330       -2.62150        1.70970
C          2.32160       -3.14040       -1.57230
C          3.64020       -2.85900       -2.25270
C          3.81900       -1.90100       -3.16710
O         -0.35940       -2.80670       -0.38100
H          2.47920       -4.05940       -0.96540
H          1.53710       -3.36260       -2.32790
H          4.48850       -3.48860       -1.99950
H          3.01180       -1.25700       -3.48910
H          4.79600       -1.76620       -3.61970
Cl         2.04680       -3.75890        2.16810
Cl         1.10570       -1.02510        2.42030
Cl        -0.77830       -3.21380        2.41400
