17
TSA8_9_Br_CCl3_H
C          1.73500       -0.19850        0.03310
C          1.54550       -1.53700        0.17210
Br         1.98190        0.74750       -1.62160
H          1.70840        0.45910        0.89150
C          1.26610       -2.17230        1.52640
C          2.90690       -4.50210       -3.17790
C          3.06010       -3.72350       -2.10280
C          2.39380       -2.38430       -1.98480
O          1.56110       -2.40280       -0.88290
H          3.40660       -5.46410       -3.22420
H          2.28870       -4.19200       -4.01460
H          3.68660       -4.06830       -1.28530
H          1.79120       -2.15640       -2.89000
H          3.20250       -1.63420       -1.87660
Cl         2.52480       -3.38880        1.85760
Cl         1.22440       -1.04990        2.92180
Cl        -0.30950       -3.00090        1.46070
