22
TSA8_9_CCl3_NO2_CF3
C          2.80930       -0.97580        1.41060
C          2.79420       -2.30240        0.63990
C          3.28860        0.19820        0.50570
H          1.75420       -0.70720        1.63380
N          1.64030       -3.00240        0.43720
C          3.57820       -1.02230        2.79820
C          2.58580       -0.84720        3.93160
C          2.63290        0.20580        4.75610
O          3.83850       -2.73510        0.17490
C          4.43060       -2.28140        3.08380
H          4.29040       -0.16910        2.83820
H          1.81200       -1.59520        4.07830
H          3.38980        0.97670        4.64310
H          1.90730        0.30360        5.55610
Cl         5.01150        0.05470        0.05270
Cl         2.31910        0.27410       -0.99490
Cl         3.06230        1.76650        1.33640
O          1.66110       -4.02590       -0.17780
O          0.49320       -2.57040        0.91650
F          3.64560       -3.42290        3.07960
F          5.44410       -2.41050        2.15310
F          5.02150       -2.16670        4.33100
