17
TSA8_9_NH2_CN_Br
C          1.33160       -0.92350       -1.19560
C          1.85680       -1.73520       -0.02060
N          2.37970       -0.01430       -1.67510
H          0.47450       -0.28370       -0.88470
C          1.31590       -1.58830        1.30820
C          0.83180       -1.85610       -2.33920
C         -0.60960       -2.28340       -2.13360
C         -1.05370       -2.95930       -1.07170
O          2.81440       -2.47670       -0.18060
Br         0.89980       -0.95650       -4.07240
H          1.49950       -2.74100       -2.43790
H         -1.34160       -2.01500       -2.89140
H         -0.39650       -3.26180       -0.26840
H         -2.11000       -3.20680       -1.00600
H          3.32750       -0.45510       -1.66060
H          2.38900        0.85170       -1.08810
N          0.89020       -1.50130        2.37720
