17
TSA8_9_NH2_CN_Br
C          1.29840       -0.94890       -1.39530
C          1.63990       -1.90750       -0.21070
N          2.41710       -0.04780       -1.69340
H          0.37800       -0.35560       -1.17150
C          1.48360       -1.26850        1.10510
C          0.99370       -1.84610       -2.59660
C         -0.25220       -2.68670       -2.27550
C         -0.29830       -3.07990       -0.78570
O          1.00420       -3.18660       -0.25050
Br         0.74190       -0.88120       -4.26370
H          1.86040       -2.53170       -2.74160
H         -1.19100       -2.12310       -2.47980
H         -0.83590       -4.04480       -0.68200
H         -0.87630       -2.33540       -0.19150
H          3.12800       -0.03960       -0.92750
H          2.05100        0.92830       -1.79520
N          1.35950       -0.76740        2.13650
