19
TSA8_9_OH_CN_CCl3
C          2.52110        0.34150        1.74470
C          1.54280        1.42430        1.33270
O          2.42430       -0.71930        0.82370
H          3.51870        0.82980        1.67120
C          1.69350        2.07170        0.05170
C          2.27910       -0.15800        3.20590
C          1.04820       -1.04730        3.23810
C         -0.07680       -0.70150        3.86710
O          0.69020        1.84030        2.10230
C          3.50130       -0.88040        3.84660
H          2.12290        0.74550        3.83830
H          1.07770       -2.00210        2.71970
H         -0.16320        0.24650        4.38610
H         -0.92900       -1.37400        3.84970
H          3.32620       -1.11240        0.71980
N          1.80980        2.59050       -0.97330
Cl         3.14050       -1.28940        5.54830
Cl         3.96320       -2.39260        3.01600
Cl         4.92730        0.19770        3.87880
