17
TSA8_9_Br_CH2F_I
C          2.96490       -1.62170       -0.16080
C          1.46250       -1.76560       -0.09310
Br         3.41160        0.27410       -0.24410
H          3.37680       -2.01340        0.79490
C          0.82820       -2.43790        1.09180
C          3.65530       -2.43450       -1.28940
C          3.35740       -1.98550       -2.70350
C          2.18840       -2.20540       -3.31150
O          0.75410       -1.29930       -0.97160
I          5.78720       -2.34790       -0.99720
H          3.40290       -3.51280       -1.18990
H          4.14130       -1.50030       -3.27740
H          1.37990       -2.72950       -2.81680
H          2.04310       -1.87790       -4.33590
F         -0.55080       -2.44790        0.97350
H          1.10580       -1.89480        2.01940
H          1.19130       -3.48470        1.16100
