17
TSA8_9_Br_CH2F_I
C          1.88120       -0.18440       -0.00820
C          1.48920       -1.48010       -0.05110
Br         2.29730        0.95750       -1.49010
H          1.94750        0.31480        0.95420
C          1.14450       -2.18290        1.23320
C          4.05030       -3.92640       -2.32840
C          3.55060       -2.77730       -1.86520
C          2.19440       -2.27250       -2.28910
O          1.35800       -2.22480       -1.18970
I          5.93800       -4.61050       -1.67680
H          3.49670       -4.53590       -3.03620
H          4.12490       -2.19420       -1.15280
H          1.74050       -2.96480       -3.02880
H          2.28520       -1.30000       -2.79520
F         -0.16460       -2.62410        1.18570
H          1.26900       -1.52930        2.12320
H          1.81640       -3.05840        1.35110
