17
TSA8_9_Br_CH2F_I
C          3.05710       -1.44000       -0.29600
C          1.50140       -1.57770       -0.37520
Br         3.61980        0.26760       -1.05540
H          3.39200       -1.41000        0.76400
C          0.95660       -2.19620        0.91080
C          3.68480       -2.62950       -1.02760
C          3.23350       -2.64010       -2.49320
C          1.79600       -2.11840       -2.63880
O          1.04790       -2.38060       -1.46850
I          5.81820       -2.73370       -0.85040
H          3.29190       -3.55090       -0.54370
H          3.88210       -2.01410       -3.14610
H          1.32150       -2.60910       -3.51430
H          1.77430       -1.02550       -2.85240
F         -0.42380       -2.27480        0.84670
H          1.23280       -1.56640        1.78270
H          1.37170       -3.21640        1.05420
