21
TSA8_9_CN_Et_H
C          2.57250        0.10200       -1.49510
C          1.40670       -0.84900       -1.64250
C          2.17460        1.14860       -0.48000
H          3.43150       -0.44440       -1.07410
C          1.51520       -2.28950       -1.19970
C          2.95350        0.74500       -2.89820
C          2.29910        2.08610       -2.95310
C          0.99750        2.16140       -3.19840
O          0.35730       -0.46200       -2.13290
H          4.04910        0.92400       -3.01320
H          2.66150        0.11270       -3.77590
H          2.79800        2.91210       -2.44990
H          0.46410        1.31150       -3.60400
H          0.45820        3.04770       -2.90360
N          1.87930        1.99960        0.23800
C          0.50420       -3.16010       -1.94640
H          1.35220       -2.35860       -0.10020
H          2.53020       -2.67670       -1.42420
H         -0.53300       -2.82610       -1.72820
H          0.60250       -4.22690       -1.65990
H          0.69300       -3.06540       -3.03830
