21
TSA8_9_CN_Et_H
C          2.64180        0.17360       -1.25760
C          1.28550       -0.52500       -1.51710
C          2.36360        1.28500       -0.32890
H          3.36590       -0.50060       -0.75060
C          1.47970       -2.05740       -1.35930
C          3.18820        0.61920       -2.63850
C          2.27620        1.70130       -3.17740
C          0.80730        1.26730       -2.99350
O          0.69290       -0.14070       -2.76830
H          4.23820        0.97130       -2.64870
H          3.13180       -0.23200       -3.36340
H          2.47240        2.64420       -2.60690
H          0.28780        1.53650       -3.93340
H          0.30810        1.84840       -2.18110
N          2.11920        2.17190        0.37320
C          0.44030       -2.90310       -2.07420
H          1.45280       -2.28250       -0.26820
H          2.47400       -2.38530       -1.73740
H         -0.58360       -2.62040       -1.76210
H          0.61470       -3.97560       -1.83410
H          0.56130       -2.77280       -3.17050
