20
TSA8_9_Br_CF3_CH2F
C          1.89550        0.14320       -0.13440
C          1.47540        1.34920       -0.57420
Br         2.16090       -0.28280        1.71710
H          2.07020       -0.67110       -0.82910
C          1.21070        1.59360       -2.04280
C          2.46040        4.90420       -0.62910
C          3.03010        3.92070        0.08250
C          2.21250        3.05430        0.99890
O          1.23560        2.36980        0.29360
C          3.26870        5.77390       -1.54190
H          1.39090        5.08050       -0.55100
H          4.10000        3.74530        0.00920
H          1.72080        3.70750        1.75070
H          2.87890        2.35520        1.54010
F         -0.10660        1.97890       -2.20730
F          2.03250        2.60520       -2.49890
F          1.43940        0.46590       -2.81350
F          4.23550        6.44890       -0.81900
H          2.60450        6.51450       -2.03520
H          3.75610        5.15330       -2.32300
