20
TSA8_9_Br_CF3_CH2F
C          2.76790        2.30410       -1.02450
C          1.39380        1.73830       -0.52990
Br         4.20930        1.43310       -0.03700
H          2.94200        2.03340       -2.08850
C          0.44420        1.43810       -1.69600
C          2.75880        3.83600       -0.85350
C          2.50950        4.20710        0.62140
C          1.61900        3.15990        1.31220
O          0.71360        2.59890        0.38880
C          3.99020        4.54950       -1.42820
H          1.88330        4.20410       -1.43280
H          3.43880        4.30160        1.22390
H          1.07040        3.63900        2.14920
H          2.22870        2.35250        1.77700
F         -0.73360        0.90640       -1.20360
F          0.15520        2.59360       -2.39950
F          1.01850        0.51440       -2.55090
F          5.14620        4.19520       -0.75660
H          3.85600        5.64900       -1.34260
H          4.10400        4.29700       -2.50390
