21
TSA8_9_OMe_CBr3_F
C          1.62750       -1.19520       -1.03730
C          1.38460       -2.21100        0.07260
O          0.82310       -0.04930       -0.79640
H          2.71730       -0.97850       -0.94040
C          1.62050       -1.89690        1.53800
C          1.37230       -1.74900       -2.47170
C         -0.08350       -1.72980       -2.89900
C         -1.06840       -2.42220       -2.31860
O          1.03530       -3.34740       -0.20840
F          2.06820       -0.95830       -3.37040
H          1.79820       -2.77090       -2.56870
H         -0.34720       -1.10630       -3.74910
H         -0.91160       -3.07350       -1.47550
H         -2.07900       -2.33650       -2.70550
C          1.41300        1.11970       -1.32550
H          1.30660        1.15500       -2.42920
H          2.47210        1.24320       -1.00870
H          0.86490        1.99480       -0.92060
Br         2.26310       -0.09710        1.90520
Br        -0.03480       -2.14480        2.51380
Br         2.94210       -3.12570        2.24690
