21
TSA8_9_OMe_CBr3_F
C          1.50060       -1.07350       -0.96250
C          0.74390       -1.87830        0.14400
O          0.73850        0.09390       -1.22510
H          2.53320       -0.84690       -0.61050
C          1.53680       -2.12200        1.43830
C          1.61210       -1.94760       -2.22490
C          0.23310       -2.45420       -2.67060
C         -0.64570       -2.77560       -1.45090
O          0.16680       -3.08910       -0.33740
F          2.25200       -1.29380       -3.26110
H          2.21930       -2.83830       -1.95340
H         -0.31490       -1.73350       -3.31660
H         -1.32300       -3.62070       -1.69090
H         -1.31030       -1.90990       -1.21250
C          1.56090        1.18960       -1.57260
H          1.84800        1.13850       -2.64190
H          2.45210        1.29550       -0.91460
H          0.97330        2.11920       -1.42230
Br         2.13280       -0.44360        2.21120
Br         0.39370       -2.98220        2.74510
Br         3.07510       -3.26340        1.11940
