21
TSA8_9_Br_CH2F_OMe
C          1.92550        0.15820       -0.13630
C          1.49830        1.43320       -0.15880
Br         2.15970       -0.81780        1.49650
H          2.13420       -0.36970       -1.06210
C          1.28830        2.14700       -1.46590
C          4.05980        4.03580        0.87790
C          2.75410        3.90000        1.13510
C          2.18680        2.67350        1.79630
O          1.22240        2.08770        0.99770
O          4.51010        5.17360        0.29880
H          4.75120        3.23910        1.14100
H          2.07320        4.70500        0.87130
H          1.70640        2.99780        2.74310
H          2.97750        1.93560        2.05260
F         -0.03090        2.54500       -1.56780
H          1.53310        1.49960       -2.33520
H          1.94140        3.04340       -1.50750
C          5.83870        5.41270        0.01360
H          5.95030        5.59920       -1.07430
H          6.48940        4.55840        0.29970
H          6.17250        6.31540        0.56730
