20
TSA8_9_CH2F_Br_Me
C          1.50480       -0.27300       -2.31420
C          1.33100       -1.17710       -1.11330
C          1.45890        1.20140       -1.86760
H          2.52020       -0.46120       -2.72800
Br         2.73490       -2.37010       -0.60050
C          0.47880       -0.63400       -3.43210
C         -0.95700       -0.41690       -3.00010
C         -1.83300       -1.42430       -2.92800
O          0.30500       -1.15170       -0.45070
C          0.73440        0.14870       -4.72760
H          0.63690       -1.70940       -3.67710
H         -1.29210        0.58380       -2.74500
H         -1.54410       -2.44100       -3.17530
H         -2.85460       -1.23290       -2.61660
F          2.43460        1.43630       -0.91430
H          0.47120        1.45730       -1.43110
H          1.65620        1.87830       -2.72260
H          0.56700        1.23670       -4.58900
H          0.04230       -0.20300       -5.52280
H          1.77540       -0.01700       -5.07770
