20
TSA8_9_CH2F_Br_Me
C          1.38550       -0.20110       -2.51620
C          1.01770       -1.13980       -1.35040
C          1.33580        1.25910       -2.02380
H          2.43490       -0.39860       -2.82730
Br         1.56380       -2.99700       -1.60480
C          0.43340       -0.50590       -3.70320
C         -1.02420       -0.42930       -3.23470
C         -1.21150       -1.35390       -2.02500
O         -0.34170       -1.00800       -0.95740
C          0.66610        0.38970       -4.92480
H          0.62450       -1.55250       -4.03060
H         -1.29930        0.61060       -2.95840
H         -1.08290       -2.41830       -2.31790
H         -2.25920       -1.25430       -1.67280
F          2.22220        1.42930       -0.97450
H          0.32280        1.54140       -1.67190
H          1.63790        1.95420       -2.83290
H          0.44200        1.45250       -4.69900
H          0.00130        0.07040       -5.75560
H          1.71950        0.30260       -5.26550
