23
TSA8_9_CHF2_CF3_CF3
C          2.02430       -1.12780       -1.81360
C          0.69060       -1.82520       -1.61790
C          1.90870        0.30310       -1.23680
H          2.79040       -1.66710       -1.21200
C          0.58240       -3.02080       -0.70910
C          2.47140       -1.13860       -3.31440
C          3.83140       -0.48680       -3.46050
C          4.02090        0.60760       -4.20430
O         -0.30600       -1.40840       -2.19170
C          2.56370       -2.56250       -3.91240
H          1.71870       -0.57610       -3.91240
H          4.68270       -0.92290       -2.94460
H          3.19850        1.07590       -4.73650
H          5.01160        1.04280       -4.28270
F          3.13220        0.94750       -1.22940
F          1.00340        1.05920       -1.96250
H          1.56060        0.24870       -0.18270
F         -0.71850       -3.49210       -0.67790
F          1.41300       -4.03020       -1.15810
F          0.95850       -2.66110        0.57190
F          1.32840       -3.18370       -3.91610
F          2.99960       -2.48920       -5.22470
F          3.45600       -3.33700       -3.19050
