20
TSA8_9_NH2_Br_OMe
C          3.07470        0.80250        1.22160
C          1.61910        1.01520        0.86720
N          3.51070       -0.51680        0.75280
H          3.66270        1.58030        0.68740
Br         1.12050        2.43610       -0.31240
C          3.32450        1.00860        2.74990
C          2.66380       -0.04250        3.62520
C          1.68330        0.26030        4.48260
O          0.75000        0.28650        1.32030
O          4.69220        1.18830        3.10600
H          2.85630        1.99300        2.97820
H          2.98660       -1.07660        3.56320
H          1.31780        1.27690        4.58650
H          1.23580       -0.51990        5.09030
H          3.40680       -0.56890       -0.28660
H          2.92450       -1.27250        1.17690
C          5.54880        0.15830        2.66120
H          6.49620        0.22790        3.23390
H          5.80890        0.30330        1.59150
H          5.14590       -0.85650        2.85770
