22
TSA8_9_NO2_Et_Cl
C          1.79920       -0.06770       -0.11200
C          1.55340        0.11580       -1.44390
N          2.16450        0.91400        0.85650
H          1.73640       -1.08750        0.26310
C          1.28870       -1.10690       -2.29490
C          1.95870        4.57720       -2.83590
C          2.12810        3.56650       -1.97650
C          1.05080        2.54310       -1.72790
O          1.50560        1.30110       -2.12250
Cl         3.25110        5.73540       -3.10620
H          1.02880        4.69830       -3.38310
H          3.07600        3.47920       -1.45730
H          0.15790        2.78360       -2.34410
H          0.69840        2.55090       -0.67820
O          2.25150        0.58240        1.99940
O          2.65330        2.07980        0.50670
C          2.31320       -1.21070       -3.42180
H          0.27150       -1.02460       -2.73430
H          1.32760       -2.04740       -1.70230
H          2.26600       -0.31310       -4.07570
H          2.09840       -2.10670       -4.04110
H          3.33790       -1.30180       -3.00260
