22
TSA8_9_NO2_Et_Cl
C          2.56150        1.02860       -1.00300
C          1.20930        0.39230       -1.47090
N          2.51210        1.23620        0.43830
H          3.41030        0.33970       -1.20730
C          1.35720       -0.96790       -2.16630
C          2.79330        2.32850       -1.80840
C          1.59780        3.28870       -1.69370
C          0.28300        2.50270       -1.57270
O          0.39450        1.26780       -2.24740
Cl         4.33490        3.14430       -1.42090
H          2.85350        2.02780       -2.87690
H          1.65920        3.99360       -0.83690
H         -0.54950        3.10290       -1.99410
H          0.02440        2.33080       -0.50040
O          2.36940        0.29540        1.15930
O          2.64830        2.43230        0.97070
C          2.06070       -0.87550       -3.52030
H          0.34240       -1.39260       -2.32210
H          1.91930       -1.65900       -1.50230
H          1.49460       -0.21160       -4.20700
H          2.11720       -1.88760       -3.97390
H          3.09360       -0.48730       -3.40630
