20
TSA8_9_CHF2_H_CBr3
C          1.55030        1.85820        1.84480
C          1.39030        1.79870        0.34000
C          1.62200        0.41820        2.39630
H          2.54250        2.32580        2.01740
H          2.17260        2.19980       -0.29650
C          0.44710        2.79940        2.45770
C         -0.95030        2.25700        2.20930
C         -1.83310        2.89330        1.43260
O          0.40610        1.29050       -0.17560
C          0.59890        3.19540        3.96090
H          0.57110        3.75870        1.90330
H         -1.25030        1.32350        2.67490
H         -1.58160        3.82970        0.94490
H         -2.82190        2.47290        1.28080
F          2.55560       -0.31010        1.67760
F          2.03240        0.40940        3.71170
H          0.64170       -0.09350        2.30200
Br         2.38680        3.84270        4.36170
Br        -0.60250        4.67610        4.34840
Br         0.12910        1.80860        5.24670
