20
TSA8_9_CHF2_H_CBr3
C          1.83490        0.08240        0.06200
C          1.10920        1.20550        0.18120
C          2.21420       -0.83460        1.19780
H          2.17360       -0.19870       -0.93140
H          0.88980        1.77780       -0.71730
C         -0.23430        4.12690        3.54600
C         -0.50240        2.95600        2.94490
C         -0.19230        2.72130        1.49460
O          0.64540        1.63440        1.37860
C         -0.54580        4.36650        5.00060
H          0.21620        4.93090        2.97030
H         -0.96040        2.14840        3.50940
H          0.28560        3.61650        1.03780
H         -1.14300        2.51240        0.95790
F          3.59110       -0.92400        1.26930
F          1.72860       -0.40960        2.42170
H          1.80060       -1.84360        0.98930
Br        -0.05090        6.17510        5.49260
Br        -2.44290        4.14500        5.34220
Br         0.45390        3.13820        6.12020
