20
TSA8_9_CHF2_H_CBr3
C          1.47680        2.02650        1.91290
C          1.13100        2.03430        0.41050
C          1.68520        0.56790        2.36930
H          2.45420        2.54200        2.02960
H          1.19110        3.05270       -0.03750
C          0.35920        2.84370        2.64530
C         -1.02610        2.29430        2.25570
C         -1.14900        2.24300        0.72880
O         -0.13010        1.43700        0.16530
C          0.47940        3.04390        4.18420
H          0.43060        3.86940        2.21550
H         -1.17780        1.27510        2.66820
H         -1.13360        3.26780        0.29260
H         -2.13490        1.80410        0.46980
F          2.59180       -0.05400        1.52740
F          2.21830        0.52440        3.64120
H          0.73740       -0.00720        2.33690
Br         2.23550        3.71360        4.67340
Br        -0.80060        4.39590        4.74450
Br         0.07680        1.46980        5.26010
