17
TSA8_9_H_F_CCl3
C          2.13400       -0.03240       -0.37400
C          1.33780        0.35010       -1.38310
H          2.78180        0.66180        0.14790
H          2.13530       -1.06870       -0.05250
F          0.54500       -0.58460       -1.96990
C          4.04970        3.32610       -2.89360
C          3.48420        2.48260       -2.01410
C          2.08450        2.69480       -1.49440
O          1.26890        1.63210       -1.84260
C          5.44540        3.10930       -3.41900
H          3.48840        4.18940       -3.24180
H          4.04600        1.62060       -1.66700
H          1.64970        3.61700       -1.93590
H          2.09380        2.83130       -0.39220
Cl         5.87420        4.41080       -4.55820
Cl         6.62490        3.12140       -2.08130
Cl         5.54920        1.55150       -4.28100
