17
TSA8_9_H_F_CCl3
C          3.18460        0.75510       -1.94590
C          1.97380        0.87110       -1.00510
H          3.98490        0.29550       -1.32950
H          2.98290        0.09340       -2.81550
F          1.32370       -0.33860       -0.84680
C          3.58590        2.16310       -2.46570
C          3.23920        3.19330       -1.37980
C          1.69570        3.15730       -1.18330
O          1.09380        1.88400       -1.41910
C          5.05370        2.24440       -2.94750
H          2.93460        2.40840       -3.33650
H          3.76030        2.90120       -0.44110
H          1.27690        3.83950       -1.95220
H          1.41220        3.56300       -0.18900
Cl         5.39290        3.87120       -3.59970
Cl         6.21710        1.92390       -1.62830
Cl         5.34920        1.06870       -4.25800
