20
TSA8_9_F_CCl3_CCl3
C          2.09230       -0.33900       -0.17960
C          1.52160       -1.20260       -1.05480
F          2.53500        0.89220       -0.54060
H          2.21450       -0.59140        0.86550
C          1.02280       -2.57360       -0.62610
C          4.02570       -0.66370       -4.45180
C          3.46730       -0.34640       -3.27140
C          2.01300        0.02860       -3.15700
O          1.35830       -0.91170       -2.38280
C          5.46850       -1.08030       -4.56130
H          3.42040       -0.63580       -5.35360
H          4.06760       -0.38060       -2.36730
H          1.53740        0.02760       -4.16090
H          1.88720        1.05160       -2.75190
Cl         1.21040       -2.95910        1.11360
Cl        -0.70560       -2.72450       -1.02690
Cl         1.91790       -3.80850       -1.54550
Cl         5.86970       -1.43650       -6.26130
Cl         6.54430        0.22050       -3.98760
Cl         5.75910       -2.55370       -3.59740
