20
TSA8_9_F_CCl3_CCl3
C          3.27510       -0.98280       -1.63040
C          1.71590       -1.04610       -1.48190
F          3.71490        0.20650       -1.07450
H          3.75600       -1.80740       -1.06690
C          1.18070       -2.39590       -0.96420
C          3.65070       -1.03280       -3.12870
C          2.95480        0.13370       -3.87070
C          1.60300        0.47850       -3.22710
O          1.02310       -0.68200       -2.67690
C          5.17360       -1.09480       -3.42080
H          3.21010       -1.97190       -3.52730
H          3.55100        1.07050       -3.90630
H          0.93150        0.92580       -3.98810
H          1.72800        1.25370       -2.43410
Cl         1.86500       -2.77620        0.63960
Cl        -0.58910       -2.29720       -0.77150
Cl         1.54960       -3.73210       -2.08770
Cl         5.45510       -1.23450       -5.17900
Cl         6.04890        0.34890       -2.83430
Cl         5.90220       -2.53460       -2.65720
