21
TSA8_9_Br_CN_Et
C          2.90380       -0.63840       -1.06350
C          1.75830       -1.42440       -0.32540
Br         2.05290        1.10730       -1.28320
H          3.79120       -0.43720       -0.42560
C          1.94730       -1.57790        1.12820
C          3.29040       -1.16990       -2.50650
C          2.62690       -2.51400       -2.81350
C          1.22410       -2.54300       -2.26630
O          1.33280       -2.64900       -0.87120
C          4.79390       -1.36620       -2.88010
H          2.87060       -0.45850       -3.24900
H          3.17980       -3.35170       -2.32700
H          0.72530       -3.45500       -2.65020
H          0.61680       -1.66560       -2.59500
N          2.04060       -1.71810        2.27260
C          5.71500       -0.14930       -2.87550
H          4.79970       -1.72890       -3.93460
H          5.25990       -2.15880       -2.25340
H          5.29190        0.67820       -3.48020
H          6.67940       -0.45240       -3.35120
H          5.93860        0.18810       -1.84440
