20
TSA8_9_CCl3_Br_CH2F
C          1.81640       -0.06040       -0.01350
C          1.09670       -1.15970        0.28610
C          2.21410        0.44540       -1.38810
H          2.15110        0.55100        0.82000
Br         0.74360       -1.50950        2.14770
C         -0.20080       -5.06610       -1.90350
C         -0.48710       -3.76640       -1.73730
C         -0.21120       -3.05790       -0.44160
O          0.63040       -1.99170       -0.67810
C         -0.48220       -5.76300       -3.20070
H          0.24320       -5.63840       -1.09410
H         -0.93560       -3.20090       -2.54980
H          0.25460       -3.75070        0.29410
H         -1.17190       -2.68570       -0.02820
Cl         1.67150       -0.52690       -2.78680
Cl         1.55180        2.08550       -1.58640
Cl         3.98910        0.54760       -1.45670
F         -1.83380       -5.70640       -3.48570
H         -0.17360       -6.82690       -3.12600
H          0.09000       -5.28080       -4.02110
