23
TSA8_9_Me_F_Et
C          2.53940        1.32380       -0.86140
C          1.43350        0.31370       -1.09640
C          2.57740        1.57680        0.66030
H          3.49010        0.84840       -1.19000
F          1.73210       -0.90140       -1.62420
C          2.30620        2.62280       -1.70940
C          1.86820        2.24730       -3.11580
C          0.67700        2.60300       -3.60770
O          0.27320        0.58090       -0.82250
C          3.54660        3.54310       -1.90380
H          1.48980        3.20630       -1.22600
H          2.54280        1.67030       -3.74290
H         -0.02800        3.17890       -3.01550
H          0.39880        2.31580       -4.61640
H          1.62110        2.02890        1.00180
H          3.39010        2.23090        0.99500
H          2.71840        0.61360        1.19690
C          4.19290        4.13370       -0.65660
H          3.21320        4.40760       -2.52140
H          4.33710        3.00520       -2.47340
H          3.43760        4.64610       -0.02460
H          4.95940        4.87540       -0.96660
H          4.74360        3.35980       -0.09250
