17
TSA8_9_NO2_OH_Br
C          2.60070        1.05010        0.21800
C          1.25370        1.46800       -0.34070
N          2.46080       -0.05990        1.15070
H          3.19810        0.70970       -0.65860
O          1.17570        2.41340       -1.30180
C          3.37650        2.22950        0.86990
C          2.75120        2.78430        2.13360
C          1.56100        3.39250        2.15910
O          0.22500        0.93750        0.05040
Br         5.18310        1.63250        1.28430
H          3.48800        3.05690        0.13710
H          3.29770        2.70300        3.06900
H          0.96810        3.52820        1.26340
H          1.17210        3.77380        3.09770
O          2.96250       -1.11470        0.90170
O          1.76990        0.07730        2.26330
H          1.96430        2.83790       -1.66710
