25
TSA8_9_NO2_Me_Et
C          2.94750       -0.21510        1.08300
C          1.66680        0.63560        1.26380
N          2.58450       -1.48890        0.48290
H          3.59350        0.32560        0.35860
C          1.88080        2.15310        1.26290
C          3.71360       -0.45340        2.42610
C          2.91250        0.07770        3.62150
C          1.43750       -0.30230        3.47230
O          0.79380        0.21020        2.30720
C          5.13880        0.14010        2.46370
H          3.81500       -1.55110        2.58400
H          2.99300        1.17710        3.72090
H          0.90300        0.08520        4.36470
H          1.34360       -1.40820        3.48180
O          3.01200       -1.78700       -0.59040
O          1.77890       -2.32130        1.10730
H          2.48520        2.50760        2.11540
H          0.89500        2.66200        1.28600
H          2.39610        2.44910        0.32490
C          6.07520       -0.45450        1.40900
H          5.58260       -0.08010        3.46020
H          5.09690        1.24420        2.33790
H          6.13850       -1.55660        1.52500
H          7.09120       -0.02510        1.53980
H          5.73900       -0.21640        0.38030
