17
TSA8_9_F_CH2F_Cl
C          1.83620        1.96610       -0.26360
C          0.79110        2.05940       -1.34630
F          1.29350        1.25490        0.79180
H          2.71920        1.40590       -0.64310
C          1.04670        1.46400       -2.70100
C          2.29730        3.36740        0.19690
C          3.34350        3.29770        1.28630
C          3.08870        2.79870        2.50070
O         -0.27210        2.61700       -1.11550
Cl         2.98960        4.25990       -1.19340
H          1.42940        3.94980        0.57630
H          4.34050        3.68420        1.09300
H          2.10840        2.41780        2.76460
H          3.87120        2.77990        3.25230
F         -0.04010        1.65790       -3.53610
H          1.23200        0.37440       -2.59800
H          1.93920        1.94320       -3.15460
