17
TSA8_9_F_CH2F_Cl
C          1.81000        0.15700       -0.12900
C          1.56970        1.33330       -0.74910
F          2.10650        0.06060        1.19210
H          1.73880       -0.77370       -0.68400
C          1.18890        1.33910       -2.20370
C          2.54590        5.27870        0.33550
C          3.12430        4.14030        0.73230
C          2.31260        2.91110        1.01620
O          1.62610        2.54750       -0.12960
Cl         3.51930        6.70300        0.00710
H          1.46920        5.33880        0.20890
H          4.20310        4.10000        0.85450
H          1.58620        3.13350        1.82630
H          3.01320        2.12570        1.35640
F         -0.05500        1.92280       -2.35340
H          1.15630        0.31590       -2.63640
H          1.93560        1.93280       -2.77100
