17
TSA8_9_F_CH2F_Cl
C          2.90130        1.94250       -0.64480
C          1.37490        1.65050       -0.48040
F          3.61450        1.25160        0.32190
H          3.26500        1.58810       -1.63370
C          0.66070        1.70680       -1.83200
C          3.12910        3.44430       -0.46820
C          2.65410        3.88820        0.92670
C          1.53970        2.96850        1.45850
O          0.69840        2.54610        0.40860
Cl         4.83520        3.89830       -0.72930
H          2.51640        3.97160       -1.23020
H          3.46740        3.87780        1.68510
H          0.95190        3.51170        2.22690
H          1.96510        2.07680        1.97370
F         -0.67190        1.37600       -1.66780
H          1.11830        0.97770       -2.53360
H          0.72860        2.72420       -2.27130
