19
TSA8_9_NH2_CCl3_H
C          1.72870       -0.05210        0.20190
C          1.50850       -1.20550        0.89220
N          1.88160        0.01960       -1.20890
H          1.75820        0.89530        0.72390
C          1.25400       -1.20660        2.39350
C          2.86320       -5.36440       -0.70860
C          2.99490       -4.18190       -0.10130
C          2.36540       -2.93070       -0.64020
O          1.48450       -2.43680        0.30310
H          3.33490       -6.24500       -0.28480
H          2.28980       -5.46700       -1.62470
H          3.57630       -4.11990        0.81400
H          1.81060       -3.13840       -1.58060
H          3.18910       -2.21370       -0.84740
H          1.74370       -0.78540       -1.83050
H          2.04520        0.93730       -1.64670
Cl         2.49870       -2.20460        3.18620
Cl         1.26540        0.39670        3.19190
Cl        -0.33690       -1.94480        2.70700
