18
TSA8_9_Me_OH_Cl
C          2.59990       -0.23860        1.13720
C          1.24560       -0.00590        1.78100
C          2.40670       -0.63980       -0.33520
H          3.13490        0.73650        1.15200
O          0.93020        1.20230        2.29710
C          3.51430       -1.23620        1.91290
C          3.06850       -2.68430        1.91420
C          2.03160       -3.13530        2.62520
O          0.40170       -0.88680        1.79180
Cl         5.16420       -1.16920        1.21720
H          3.62910       -0.89600        2.96520
H          3.64240       -3.41090        1.34540
H          1.44500       -2.47990        3.25630
H          1.77770       -4.19020        2.59780
H          1.87480       -1.61230       -0.41160
H          3.38230       -0.72810       -0.85570
H          1.80890        0.13300       -0.86440
H          1.55480        1.94140        2.29620
