18
TSA8_9_Me_OH_Cl
C          2.80810       -0.24800        0.95330
C          1.39550       -0.24780        1.56580
C          2.73510       -0.77360       -0.49130
H          3.18940        0.79570        0.90110
O          1.33620        0.48560        2.75720
C          3.73140       -1.07980        1.87160
C          3.13040       -2.46580        2.11240
C          1.69860       -2.30190        2.64270
O          0.88570       -1.56390        1.74140
Cl         5.39540       -1.21260        1.23600
H          3.80180       -0.56800        2.85680
H          3.11820       -3.05950        1.17440
H          1.70090       -1.83130        3.65110
H          1.25840       -3.31280        2.76970
H          2.33200       -1.80570       -0.54050
H          3.73830       -0.75800       -0.96530
H          2.06790       -0.11890       -1.09150
H          0.77040        1.26920        2.53990
