25
TSA8_9_CF3_Et_NO2
C          2.47290        0.64370        0.86100
C          1.25670        1.42520        0.37980
C          2.01430       -0.73220        1.40640
H          3.11370        0.42380       -0.02190
C          1.12570        1.87340       -1.05120
C          3.33680        1.53500        1.81820
C          2.56150        2.10710        2.98770
C          2.38220        3.42610        3.12880
O          0.35250        1.68500        1.16140
N          4.52150        0.85040        2.31060
H          3.68000        2.38460        1.18340
H          2.13860        1.44120        3.73270
H          2.78750        4.13000        2.40730
H          1.82210        3.81350        3.97290
F          3.09610       -1.55710        1.64780
F          1.27700       -0.59470        2.56810
F          1.22640       -1.36300        0.45790
C          2.19370        2.90510       -1.40310
H          0.13110        2.34820       -1.20180
H          1.19870        0.99480       -1.72680
H          2.10260        3.78760       -0.73270
H          2.05440        3.24180       -2.45160
H          3.21180        2.47580       -1.30230
O          4.43280       -0.01790        3.12490
O          5.71320        1.28010        1.95540
