23
TSA8_9_CCl3_Me_CCl3
C          0.82270       -1.49140        1.30510
C          1.95910       -2.57550        1.22610
C          1.24890       -0.01200        1.60560
H          0.42500       -1.40460        0.27050
C          3.27720       -2.15220        0.58340
C         -0.35970       -2.11550        2.16480
C         -0.57040       -3.60300        1.74580
C          0.14650       -3.95150        0.44660
O          1.55170       -3.79340        0.59020
C         -0.30490       -2.06130        3.73910
H         -1.28030       -1.56890        1.86500
H         -0.12390       -4.29610        2.49180
H         -0.24060       -3.37200       -0.41680
H         -0.05910       -5.02010        0.22530
Cl         2.19450        0.68790        0.25690
Cl        -0.17880        1.06070        1.69230
Cl         2.24910        0.16150        3.07550
H          3.98850       -3.00400        0.62300
H          3.74710       -1.32340        1.14690
H          3.12300       -1.87340       -0.48070
Cl        -0.49550       -0.43100        4.43160
Cl        -1.68480       -2.96390        4.44230
Cl         1.19480       -2.78490        4.38990
