18
TSA8_9_Me_H_CN
C          1.55300       -1.45940       -1.02840
C          2.27780       -1.44990        0.30450
C          2.08440       -0.32030       -1.90690
H          0.49510       -1.20580       -0.81530
H          2.27230       -0.54190        0.89950
C          1.51430       -2.84400       -1.75640
C          0.95430       -3.90490       -0.83560
C         -0.28390       -3.80550       -0.34230
O          2.84440       -2.43870        0.74430
C          2.79720       -3.29540       -2.32490
H          0.83190       -2.76020       -2.63080
H          1.56710       -4.75500       -0.54500
H         -0.66280       -4.55530        0.34100
H         -0.92450       -2.97300       -0.61550
H          1.62900       -0.35860       -2.91780
H          3.19180       -0.34810       -1.99740
H          1.79620        0.64980       -1.44200
N          3.76990       -3.71080       -2.79590
