18
TSA8_9_Me_H_CN
C          1.58240       -0.04690        0.04540
C          1.48600       -1.19250        0.87970
C          1.64140        0.15580       -1.45110
H          1.48460        0.91100        0.54630
H          1.64210       -0.97980        1.95790
C          1.10880       -4.42470       -2.54760
C          1.55030       -3.86150       -1.42130
C          0.69950       -2.99000       -0.54600
O          1.43870       -2.54040        0.53800
C          2.02170       -5.23910       -3.31740
H          0.09000       -4.26660       -2.88810
H          2.57750       -4.05640       -1.12900
H         -0.17450       -3.56720       -0.17980
H          0.26920       -2.14610       -1.12730
H          1.39490       -0.68180       -2.11590
H          2.72290        0.35780       -1.51100
H          1.12640        1.06210       -1.85780
N          2.78390       -5.88500       -3.90270
