20
TSA8_9_CH2F_CH2F_F
C          2.72280        0.88180        0.86700
C          1.36920        1.55580        0.96940
C          2.54320       -0.58980        0.45640
H          3.26750        1.39810        0.04450
C          1.04950        2.71790        0.06920
C          3.62250        1.04300        2.12740
C          3.25180        0.20020        3.33070
C          2.17270        0.39730        4.09100
O          0.51740        1.13940        1.74040
F          4.91070        0.68020        1.76640
H          3.66930        2.11330        2.42350
H          3.92780       -0.60270        3.61470
H          1.47490        1.20120        3.90290
H          1.99480       -0.25020        4.94330
F          3.76840       -1.19470        0.24270
H          1.95490       -0.64920       -0.48390
H          1.99580       -1.15060        1.24460
F         -0.23320        3.18400        0.29660
H          1.13320        2.39940       -0.99190
H          1.77040        3.54260        0.25470
