20
TSA8_9_CH2F_CH2F_F
C          1.73320        0.09590        0.04950
C          1.44690        1.23650        0.73170
C          1.85550       -1.30340        0.57920
H          1.86230        0.16470       -1.02750
C          1.26970        2.51480       -0.04310
C          4.18390        2.04120        3.76140
C          3.53440        1.26750        2.88680
C          2.10410        0.84660        3.09590
O          1.30080        1.35330        2.08600
F          5.47430        2.39420        3.52550
H          3.69660        2.39750        4.66360
H          4.05190        0.92970        1.99370
H          1.71680        1.23840        4.06040
H          2.05740       -0.24550        3.18440
F          3.14690       -1.75930        0.39360
H          1.15990       -1.94960        0.00440
H          1.56150       -1.43090        1.62550
F          0.00000        3.01440        0.17960
H          1.40690        2.37710       -1.13730
H          2.01680        3.25730        0.30720
