29
TSA8_9_Et_Et_CH2F
C          2.04660       -1.27090       -1.38920
C          0.83710       -2.07770       -0.94800
C          1.82430        0.18570       -0.89130
H          2.94430       -1.67470       -0.86830
C          1.00750       -3.21080        0.03710
C          2.23900       -1.43610       -2.93500
C          3.43800       -0.68180       -3.45810
C          3.32290        0.25630       -4.40540
O         -0.26930       -1.80060       -1.39170
C          2.43150       -2.91880       -3.31300
H          1.31720       -1.07210       -3.44400
H          4.42330       -0.91440       -3.06330
H          2.35610        0.51320       -4.82850
H          4.20420        0.77710       -4.76380
C          3.05210        1.09880       -0.93770
H          1.54960        0.13040        0.18640
H          0.97750        0.65860       -1.43500
H          3.89460        0.63790       -0.37960
H          2.80060        2.06660       -0.45470
H          3.37210        1.33650       -1.96470
C         -0.30680       -3.91740        0.36870
H          1.44240       -2.80540        0.97580
H          1.71380       -3.95480       -0.38970
H         -1.02620       -3.20150        0.82100
H         -0.11690       -4.73580        1.09430
H         -0.75170       -4.35430       -0.55100
F          2.56840       -3.05120       -4.68470
H          1.55810       -3.52810       -3.00250
H          3.33900       -3.33050       -2.81980
