29
TSA8_9_Et_Et_CH2F
C          1.90060       -0.24520       -0.00300
C          1.46750       -1.22800       -0.82240
C          1.91090        1.21830       -0.36810
H          2.25330       -0.50040        0.99280
C          1.45410       -2.66200       -0.34590
C          2.00450       -3.09120       -3.89580
C          2.63080       -1.96730       -3.52040
C          1.85990       -0.72880       -3.15650
O          1.02190       -0.95580       -2.07780
C          2.77480       -4.32290       -4.26080
H          0.91890       -3.12020       -3.93750
H          3.71650       -1.93770       -3.48100
H          1.24660       -0.42250       -4.02970
H          2.57030        0.09320       -2.92940
C          3.33220        1.76660       -0.32460
H          1.28400        1.76940        0.36440
H          1.48360        1.40170       -1.37490
H          3.76480        1.64010        0.69100
H          3.32170        2.84850       -0.57420
H          3.97170        1.23630       -1.06210
C          0.03780       -3.22640       -0.36880
H          1.84940       -2.74790        0.69010
H          2.10240       -3.27320       -1.00740
H         -0.61870       -2.64100        0.30930
H          0.05230       -4.28220       -0.02480
H         -0.37760       -3.19520       -1.39870
F          3.60010       -4.06210       -5.33970
H          2.07030       -5.13620       -4.53430
H          3.38860       -4.65520       -3.39720
