25
TSA8_9_OMe_Et_CN
C          2.15960        1.44680        0.62230
C          1.06610        1.47040       -0.54470
O          2.08630        0.47590        1.67400
H          3.13740        1.20090        0.15580
C          1.72450        1.27880       -1.95200
C          2.24130        2.87430        1.19890
C          0.85610        3.30060        1.69620
C         -0.22070        3.01790        0.63830
O          0.37210        2.71770       -0.59520
C          3.22400        3.06040        2.27250
H          2.53520        3.54940        0.36090
H          0.56680        2.80560        2.64770
H         -0.83710        3.93100        0.52850
H         -0.94470        2.22590        0.91300
C          0.82730       -0.03480        2.04520
H          0.82440       -0.15680        3.15300
H          0.68910       -1.03850        1.59860
H         -0.02600        0.61120        1.83210
C          1.04390        2.08710       -3.07900
H          1.72030        0.19940       -2.20800
H          2.77730        1.63530       -1.95430
H         -0.03970        1.86090       -3.14820
H          1.52250        1.87630       -4.05880
H          1.16840        3.18010       -2.89350
N          3.98750        3.24630        3.12170
