22
TSA8_9_CH2F_NO2_CBr3
C          2.73620        0.40120       -1.37960
C          1.50000       -0.49450       -1.44250
C          2.70890        1.15680       -0.03520
H          3.62600       -0.25570       -1.35610
N          1.60550       -1.85400       -1.49220
C          2.81810        1.27610       -2.68710
C          1.69480        2.29800       -2.74310
C          0.73110        2.25310       -3.66790
O          0.39020        0.02330       -1.44290
C          4.18220        1.96890       -3.00110
H          2.69410        0.54310       -3.51780
H          1.67060        3.09960       -2.01140
H          0.71120        1.47320       -4.42270
H         -0.04920        3.00680       -3.67100
F          3.89880        1.79770        0.22380
H          2.56510        0.42390        0.78850
H          1.86540        1.87880        0.01140
O          0.62140       -2.52940       -1.53830
O          2.78160       -2.44460       -1.49180
Br         4.14230        2.64830       -4.82430
Br         4.63180        3.50180       -1.89170
Br         5.65950        0.70610       -2.94560
