22
TSA8_9_CH2F_NO2_CBr3
C          2.65470        0.50670       -1.50350
C          1.25710       -0.19240       -1.62290
C          2.63100        1.39780       -0.25170
H          3.42770       -0.27180       -1.32280
N          1.36520       -1.62880       -1.45940
C          2.97300        1.22500       -2.85510
C          1.80430        2.14510       -3.27420
C          0.44900        1.53210       -2.89780
O          0.56320        0.12890       -2.82440
C          4.35470        1.91770       -3.03710
H          2.97600        0.38690       -3.58920
H          1.84720        3.17270       -2.85610
H         -0.31050        1.82170       -3.65260
H          0.08210        1.94290       -1.92670
F          3.89760        1.84050        0.07040
H          2.28070        0.79760        0.61560
H          1.94240        2.25900       -0.37670
O          0.98810       -2.37030       -2.31580
O          1.84460       -2.12450       -0.33890
Br         4.60700        2.34840       -4.91630
Br         4.56400        3.59870       -2.07670
Br         5.81070        0.73000       -2.54570
