21
TSA8_9_CCl3_CF3_OH
C          1.38320       -0.53970       -0.00170
C          1.97370       -1.46960        0.80990
C          2.00040        0.26580       -1.13490
H          0.33590       -0.32970        0.16340
C          3.43240       -1.87410        0.72090
C         -1.07820       -2.40960        4.26110
C         -0.46620       -2.90210        3.17280
C         -0.10960       -2.03140        2.00330
O          1.25300       -2.10710        1.78150
O         -1.39410       -3.20420        5.30780
H         -1.33380       -1.35580        4.31620
H         -0.22070       -3.95930        3.12510
H         -0.40690       -0.97800        2.19880
H         -0.65060       -2.40580        1.10780
Cl         2.56090       -0.77470       -2.46690
Cl         0.75530        1.34300       -1.82520
Cl         3.32450        1.32060       -0.58180
F          4.26270       -0.80070        0.96980
F          3.70560       -2.84090        1.67320
F          3.72160       -2.41520       -0.51490
H         -1.19060       -4.15040        5.32160
