17
TSA8_9_NH2_OH_H
C          1.92270       -0.22730       -0.04730
C          1.60180       -1.50440       -0.40390
N          2.05300        0.90160       -0.89960
H          2.08690       -0.03650        1.00990
O          1.49950       -2.42260        0.58600
C          3.64000       -1.86110       -4.19200
C          3.00720       -1.22440       -3.20180
C          1.53960       -1.44190       -2.92310
O          1.35790       -1.97730       -1.66400
H          4.69710       -1.68320       -4.36130
H          3.11860       -2.56080       -4.83780
H          3.57760       -0.53910       -2.58490
H          1.12870       -2.17140       -3.65360
H          0.93270       -0.52770       -3.05840
H          2.30090        1.80740       -0.47650
H          1.89610        0.89810       -1.90740
H          1.64420       -2.21880        1.52160
