21
TSA8_9_CH2F_CN_CF3
C          1.73150       -0.03590        0.09480
C          1.50230       -1.21160        0.71660
C          1.85120        0.07110       -1.40390
H          1.81500        0.87670        0.67510
C          1.33650       -1.24710        2.15070
C          0.02940       -5.20710       -1.32680
C          0.49090       -3.95370       -1.41820
C          0.24270       -2.93310       -0.35380
O          1.43780       -2.34910       -0.00240
C          0.22480       -6.21900       -2.42250
H         -0.53440       -5.50920       -0.44870
H          1.03260       -3.62670       -2.30140
H         -0.27590       -3.34390        0.54000
H         -0.40290       -2.17030       -0.82760
F          3.14080        0.42920       -1.74070
H          1.14220        0.84350       -1.77060
H          1.60000       -0.87750       -1.92330
N          1.19880       -1.27200        3.30020
F          0.97090       -5.71080       -3.47350
F          0.87150       -7.32610       -1.91000
F         -1.01440       -6.59870       -2.90250
