16
TSA8_9_OH_OH_I
C          1.90840       -0.10830        0.03460
C          1.24970       -1.27280        0.10780
O          1.88350        0.62230       -1.09860
H          2.46450        0.25900        0.89320
O          1.27120       -2.00180        1.24950
C         -0.58830       -4.15710       -3.04830
C         -0.81750       -3.05960       -2.31980
C         -0.20380       -2.86540       -0.96440
O          0.55860       -1.71740       -0.97260
I         -1.47480       -4.38520       -4.94980
H          0.05450       -4.95050       -2.67960
H         -1.46670       -2.28280       -2.71350
H          0.43240       -3.73590       -0.68700
H         -1.01960       -2.76600       -0.21610
H          2.35200        1.46710       -1.14960
H          1.75510       -1.71970        2.03930
