16
TSA8_9_OH_OH_I
C          1.47960       -1.39450       -1.31250
C          1.06820       -1.47010        0.16870
O          0.97200       -0.21230       -1.87570
H          2.58960       -1.40790       -1.41350
O          1.70230       -2.52130        0.84170
C          0.89960       -2.61100       -2.04750
C         -0.60900       -2.67780       -1.80720
C         -0.87260       -2.68620       -0.29550
O         -0.34220       -1.52720        0.33100
I          1.32540       -2.54670       -4.14600
H          1.36280       -3.53870       -1.64510
H         -1.10980       -1.79570       -2.26260
H         -0.47100       -3.61180        0.17400
H         -1.97040       -2.70210       -0.13500
H          1.55640        0.52620       -1.56220
H          2.22630       -2.07980        1.55680
