19
TSA8_9_CH2F_NO2_H
C          2.69320       -0.52370       -1.03580
C          1.55020       -1.42620       -0.58640
C          2.38570        0.93450       -0.65630
H          3.61190       -0.81270       -0.48290
N          1.75320       -2.45060        0.29180
C          3.06340       -0.66430       -2.53870
C          2.04740       -0.16670       -3.54070
C          0.90930       -0.80640       -3.82050
O          0.41910       -1.20600       -0.99600
H          3.97810       -0.05100       -2.69250
H          3.34080       -1.71430       -2.77650
H          2.27640        0.73950       -4.09420
H          0.64730       -1.73990       -3.33800
H          0.23380       -0.40130       -4.56720
F          3.45640        1.75440       -0.96700
H          2.19550        1.00760        0.43600
H          1.48450        1.29950       -1.19440
O          0.83670       -3.13210        0.64030
O          2.95410       -2.70850        0.76610
