19
TSA8_9_CH2F_NO2_H
C          1.87300       -0.13270       -0.03600
C          1.51270       -1.36520       -0.50890
C          1.96760        1.20390       -0.72410
H          2.13100       -0.05550        1.01510
N          1.48580       -2.46230        0.41060
C          3.20570       -1.27000       -4.48760
C          2.67330       -0.74940       -3.37760
C          1.23320       -0.98960       -2.99490
O          1.15590       -1.67010       -1.79750
H          4.24640       -1.08020       -4.72940
H          2.61780       -1.88660       -5.16060
H          3.30770       -0.14490       -2.73980
H          0.74870       -1.62640       -3.76600
H          0.62700       -0.06590       -2.96880
F          3.26030        1.67880       -0.60520
H          1.28540        1.90870       -0.20500
H          1.69680        1.23430       -1.78040
O          1.17100       -3.54780        0.02610
O          1.80340       -2.30440        1.67940
