15
TSA8_9_Br_OH_F
C          1.22700       -1.73680       -0.15640
C          2.66370       -1.26030        0.10080
Br         0.49160       -0.70650       -1.64070
H          0.55400       -1.51830        0.70010
O          3.19740       -1.85000        1.25010
C          1.22210       -3.24830       -0.45980
C          2.54200       -3.71280       -1.10180
C          3.22990       -2.56090       -1.84430
O          3.54710       -1.44550       -1.00690
F          1.05630       -3.96280        0.71530
H          0.35220       -3.47750       -1.11070
H          3.25400       -4.01860       -0.30310
H          2.60750       -2.22950       -2.70070
H          4.17770       -2.95670       -2.26530
H          3.35060       -1.09360        1.87090
