21
TSA8_9_OH_CHF2_Me
C          1.76050        0.10420       -0.12880
C          1.48590        1.11370       -0.98720
O          2.14350        0.31680        1.14570
H          1.64940       -0.92550       -0.45920
C          1.00720        0.79090       -2.37670
C          2.55960        5.16240       -1.02640
C          3.16410        4.15380       -0.38340
C          2.37120        3.06490        0.27670
O          1.58840        2.43920       -0.67830
C          3.35670        6.23970       -1.69310
H          1.47470        5.20570       -1.07430
H          4.24960        4.11390       -0.33800
H          1.71680        3.50890        1.05650
H          3.09470        2.37670        0.75200
H          2.32370       -0.42670        1.73720
F         -0.24220        1.34910       -2.57220
F          1.88880        1.32590       -3.29750
H          0.93560       -0.30370       -2.55350
H          4.00810        5.79670       -2.47610
H          3.98530        6.76580       -0.94430
H          2.67170        6.97250       -2.16850
