21
TSA8_9_CHF2_NH2_NO2
C          2.06990        0.24020        0.09200
C          1.71980        1.28520       -0.71880
C          1.78360       -0.13870        1.52980
H          2.68760       -0.52210       -0.37720
N          2.19170        1.23920       -2.05940
C          1.82350        4.78110        1.82440
C          1.66840        3.46900        1.56620
C          0.50650        2.96280        0.74720
O          0.95740        2.38110       -0.41710
N          2.91940        5.28640        2.57920
H          1.09430        5.49090        1.44260
H          2.39560        2.75530        1.93850
H         -0.13720        3.81850        0.45200
H         -0.17370        2.29260        1.29710
F          2.98450       -0.27700        2.19990
F          0.98720        0.71070        2.24700
H          1.27830       -1.12750        1.52060
H          1.95790        2.00260       -2.71070
H          2.77520        0.46380       -2.40730
O          3.75610        4.55480        3.01830
O          3.01930        6.58040        2.78690
