21
TSA8_9_CN_Et_Br
C          2.78690        0.88530        0.69360
C          1.54300        1.60240        0.18150
C          2.38730       -0.54230        0.89120
H          3.57200        0.93970       -0.08730
C          1.50990        2.28180       -1.16760
C          3.32660        1.55210        2.00290
C          2.70600        0.88650        3.19220
C          1.50490        1.23970        3.62500
O          0.51800        1.59300        0.84710
Br         5.26000        1.44510        2.20740
H          3.14660        2.65410        1.99410
H          3.17090       -0.01940        3.57770
H          1.00370        2.10090        3.19980
H          1.01470        0.63530        4.37440
N          2.02160       -1.61430        1.10600
C          0.94390        3.69910       -1.05730
H          0.83970        1.70430       -1.83880
H          2.52200        2.30800       -1.62590
H         -0.10160        3.65620       -0.67860
H          0.92030        4.18220       -2.05730
H          1.55350        4.31660       -0.36600
