21
TSA8_9_CN_Et_Br
C          2.81190        0.78870        0.74210
C          1.43960        1.47900        0.52520
C          2.50560       -0.61970        1.05960
H          3.43660        0.79460       -0.17780
C          1.39700        2.23500       -0.83060
C          3.51670        1.57010        1.87830
C          2.72480        1.37260        3.15720
C          1.23010        1.61060        2.88180
O          1.00710        2.27330        1.63880
Br         5.39480        1.20720        2.18060
H          3.48690        2.65800        1.62960
H          2.87120        0.32880        3.53120
H          0.88160        2.26460        3.70520
H          0.64090        0.66640        2.94950
N          2.24360       -1.71270        1.33700
C          0.68000        3.57780       -0.78580
H          0.89990        1.57010       -1.57030
H          2.41930        2.44440       -1.21480
H         -0.36210        3.45950       -0.42840
H          0.66700        4.01790       -1.80660
H          1.23630        4.27090       -0.11820
