20
TSA8_9_I_H_Et
C          1.92530       -0.21140       -0.15160
C          1.22190       -0.95600       -1.03060
I          3.18700        1.46680       -0.46680
H          1.83730       -0.47490        0.89780
H          0.61740       -1.75370       -0.61050
C          3.59350       -1.91560       -3.62210
C          3.37050       -0.63920       -3.25840
C          1.97320       -0.08000       -3.23500
O          1.16610       -0.81260       -2.38610
C          4.95020       -2.58420       -3.67940
H          2.74230       -2.53220       -3.89940
H          4.18660        0.01650       -2.97990
H          1.55650       -0.15460       -4.26150
H          1.95600        0.99240       -2.96250
C          6.13360       -1.70680       -3.26980
H          5.11730       -2.93830       -4.71890
H          4.92510       -3.46930       -3.00860
H          6.21680       -0.82720       -3.94330
H          7.07200       -2.29530       -3.34530
H          6.01720       -1.36650       -2.21870
