20
TSA8_9_OH_NH2_CBr3
C          3.08630        0.65710        1.59090
C          1.68770        1.24430        1.55850
O          3.24060       -0.18760        0.47670
H          3.76810        1.53560        1.51660
N          1.28690        1.96720        0.48650
C          3.41630       -0.11100        2.90940
C          2.52750       -1.33570        3.04130
C          1.66290       -1.48320        4.05040
O          0.91710        1.08580        2.49420
C          4.91470       -0.51990        3.03920
H          3.21860        0.59080        3.75160
H          2.59290       -2.12210        2.29560
H          1.56310       -0.72450        4.82070
H          1.04650       -2.37370        4.10970
H          3.97430        0.18090       -0.08150
H          0.34150        2.37690        0.45500
H          1.92060        2.12040       -0.31150
Br         5.23140       -1.33950        4.77450
Br         5.51160       -1.79150        1.69040
Br         6.08370        1.03160        2.95870
