19
TSA8_9_CBr3_Cl_NO2
C          1.54090       -1.97220        0.57770
C          0.75080       -0.75750        1.03410
C          1.81800       -1.90310       -0.96520
H          2.54640       -1.88870        1.04690
Cl         1.47410        0.39980        2.14130
C          0.88660       -3.26020        1.20780
C         -0.59220       -3.44030        0.91060
C         -1.51880       -3.37930        1.87390
O         -0.38750       -0.56160        0.63710
N          1.59170       -4.48770        0.88140
H          0.98960       -3.09990        2.30730
H         -0.92310       -3.63550       -0.10110
H         -1.24710       -3.19150        2.90820
H         -2.56690       -3.51700        1.62850
Br         2.53990       -0.15500       -1.43630
Br         3.21950       -3.12640       -1.53120
Br         0.25960       -2.17230       -2.09170
O          1.46040       -4.99590       -0.19080
O          2.21950       -5.14810        1.83060
