20
TSA8_9_Et_F_H
C          2.48120        0.18710       -1.33970
C          1.27250       -0.67290       -1.64890
C          2.26980        0.93010        0.00290
H          3.30980       -0.54140       -1.19810
F          0.84320       -1.57000       -0.72250
C          2.90290        1.13890       -2.49960
C          2.08440        2.40680       -2.65310
C          0.79870        2.45600       -3.01470
O          0.71920       -0.64300       -2.73500
H          3.93950        1.47350       -2.28170
H          2.95270        0.58420       -3.46120
H          2.58880        3.35100       -2.46740
H          0.21740        1.57740       -3.23820
H          0.30570        3.41880       -3.10220
C          3.52010        1.66190        0.49510
H          1.99780        0.18790        0.78530
H          1.43040        1.65350       -0.08530
H          4.36090        0.94610        0.61520
H          3.30930        2.12880        1.48030
H          3.81880        2.46760       -0.20570
