20
TSA8_9_Et_F_H
C          2.29580        0.26800       -1.30390
C          0.88260       -0.22580       -1.74720
C          2.18350        1.18960       -0.06530
H          2.89410       -0.61460       -0.98420
F          0.91890       -1.59620       -1.93670
C          2.97820        0.93180       -2.51210
C          2.11850        2.07580       -3.06790
C          0.61870        1.75900       -2.92980
O          0.40800        0.36580       -2.95640
H          4.01430        1.27300       -2.31220
H          3.04700        0.15630       -3.30650
H          2.31490        3.05150       -2.57400
H          0.06510        2.24910       -3.75720
H          0.19070        2.18500       -1.99580
C          3.54620        1.58030        0.50860
H          1.63310        0.64010        0.72950
H          1.61710        2.11420       -0.29010
H          4.12160        0.67170        0.78640
H          3.39880        2.19680        1.42060
H          4.13120        2.17920       -0.21820
