23
TSA8_9_CCl3_CHF2_CBr3
C          1.01030       -1.73220        0.61030
C          2.22160       -2.65170        0.37140
C          1.35910       -0.22320        0.91230
H          0.56010       -1.60880       -0.40280
C          3.62970       -2.37330        0.85230
C         -0.17110       -2.41490        1.43340
C         -0.72590       -3.57190        0.60840
C         -1.95050       -3.53900        0.06930
O          2.04910       -3.66880       -0.28360
C          0.06190       -2.92460        2.89850
H         -0.98500       -1.66460        1.50270
H         -0.12640       -4.46100        0.44900
H         -2.60070       -2.67890        0.19560
H         -2.31080       -4.38380       -0.50840
Cl         2.26340        0.46270       -0.47230
Cl        -0.12190        0.76970        1.03150
Cl         2.34440        0.12590        2.35430
F          3.67710       -2.36140        2.23230
F          4.49400       -3.35860        0.40540
H          3.99730       -1.40650        0.46010
Br         0.43410       -1.53510        4.18790
Br        -1.57900       -3.72230        3.58720
Br         1.42600       -4.30110        3.04960
