23
TSA8_9_Et_CBr3_H
C          0.82740       -0.53800       -1.12850
C          1.55560       -1.79120       -0.57520
C          1.80240        0.31020       -1.97930
H          0.48040        0.11720       -0.30100
C          1.13670       -2.37640        0.79800
C         -0.39820       -0.97780       -1.95010
C         -0.00020       -2.03030       -2.98340
C          0.71660       -3.18580       -2.27550
O          1.87230       -2.74850       -1.58040
H         -0.88250       -0.10750       -2.44230
H         -1.15480       -1.42840       -1.27910
H          0.66440       -1.59330       -3.75710
H          1.03190       -3.91500       -3.05020
H          0.03050       -3.73710       -1.60500
C          2.97300        0.84440       -1.15160
H          1.25270        1.18320       -2.39450
H          2.21590       -0.27710       -2.82510
H          2.59940        1.46590       -0.31030
H          3.62580        1.47170       -1.79440
H          3.58180        0.00930       -0.74540
Br         1.36100       -1.02150        2.16710
Br        -0.68890       -3.02720        0.92440
Br         2.32540       -3.83560        1.26280
