19
TSA8_9_Me_NO2_H
C          1.63700       -0.76060       -1.48910
C          0.91840       -1.32220       -0.26900
C          1.45820        0.76300       -1.55980
H          2.72860       -0.94700       -1.40310
N          1.59200       -1.97470        0.72060
C          1.18230       -1.46620       -2.78770
C         -0.28470       -1.28560       -3.09810
C         -1.12160       -2.32460       -3.17720
O         -0.29460       -1.17860       -0.17760
H          1.76730       -1.06750       -3.64430
H          1.42720       -2.54790       -2.69430
H         -0.67470       -0.28690       -3.26610
H         -0.77440       -3.34070       -3.01640
H         -2.17010       -2.16000       -3.40290
H          0.38800        1.04420       -1.64790
H          2.00960        1.17250       -2.43280
H          1.86590        1.23320       -0.63940
O          1.00100       -2.40390        1.66570
O          2.89510       -2.14710        0.65100
