19
TSA8_9_Me_NO2_H
C          1.83320       -0.10300       -0.00290
C          1.17390       -1.18720       -0.46610
C          2.00430        1.16750       -0.79030
H          2.27020       -0.11300        0.99060
N          1.05280       -2.35370        0.36830
C         -0.18180       -2.22650       -4.83910
C         -0.50540       -1.56770       -3.72220
C         -0.12920       -2.07610       -2.36090
O          0.63920       -1.12590       -1.72260
H         -0.47180       -1.82950       -5.80640
H          0.36870       -3.16200       -4.80240
H         -1.05990       -0.63700       -3.79870
H          0.43910       -3.02810       -2.44830
H         -1.06310       -2.24860       -1.78410
H          1.53580        1.12120       -1.79500
H          3.08710        1.37470       -0.91760
H          1.54170        2.00550       -0.22870
O          0.47260       -3.32460       -0.00820
O          1.58550       -2.36810        1.57300
