19
TSA8_9_Me_NO2_H
C          1.66570       -0.68380       -1.63590
C          0.82800       -1.37270       -0.53530
C          1.38070        0.82580       -1.63480
H          2.75000       -0.79400       -1.41560
N          1.33930       -2.67850       -0.14660
C          1.36280       -1.33600       -2.99340
C         -0.14200       -1.33860       -3.25160
C         -0.84440       -2.02210       -2.07560
O         -0.56810       -1.38210       -0.83350
H          1.90050       -0.81630       -3.81510
H          1.71300       -2.39150       -2.97300
H         -0.52630       -0.30530       -3.37650
H         -0.58020       -3.09910       -2.04870
H         -1.93830       -1.97890       -2.25680
H          0.30920        1.05270       -1.80690
H          1.98620        1.32770       -2.41930
H          1.66370        1.25700       -0.65080
O          0.60910       -3.61670       -0.03540
O          2.58350       -2.78530        0.26630
