23
TSA8_9_OH_NO2_Et
C          3.23380        1.89130       -1.07980
C          1.83800        1.96450       -1.73190
O          3.14950        1.13560        0.10630
H          3.97150        1.41060       -1.75630
N          1.43740        0.67840       -2.25000
C          3.69410        3.33590       -0.73380
C          2.47760        4.22060       -0.35450
C          1.30460        3.36900        0.14250
O          0.82830        2.45300       -0.84440
C          4.46390        4.04650       -1.87710
H          4.38570        3.27230        0.13540
H          2.08130        4.74450       -1.25420
H          0.47530        4.06040        0.40050
H          1.58010        2.82560        1.07090
H          3.41710        0.20420       -0.11010
O          1.26420        0.54420       -3.42250
O          1.20870       -0.33150       -1.43780
C          5.80850        3.39880       -2.22120
H          4.68810        5.08630       -1.54980
H          3.83440        4.09810       -2.79240
H          6.45720        3.35900       -1.32060
H          6.31880        4.00960       -2.99560
H          5.69010        2.37820       -2.63270
