26
TSA8_9_OMe_NH2_Et
C          2.78330       -0.27790        1.47290
C          1.44810        0.54860        1.46920
O          2.53050       -1.63220        1.14000
H          3.52160        0.15720        0.75780
N          1.73910        1.94680        1.16780
C          3.35670       -0.18990        2.90040
C          2.36010       -0.80670        3.90740
C          0.91150       -0.70290        3.39380
O          0.70910        0.50500        2.69520
C          4.80650       -0.70660        3.07240
H          3.40770        0.89660        3.13760
H          2.53670       -1.87930        4.12610
H          0.21600       -0.76590        4.25560
H          0.65000       -1.55980        2.73300
C          2.21800       -1.77990       -0.23320
H          3.01720       -2.36980       -0.72680
H          2.09760       -0.82330       -0.79360
H          1.25550       -2.32520       -0.32010
H          0.83560        2.47190        1.14940
H          2.13820        2.00210        0.20300
C          5.02920       -2.19210        2.76930
H          5.12660       -0.51130        4.11940
H          5.47050       -0.11940        2.40140
H          4.42830       -2.83890        3.43770
H          6.10060       -2.43460        2.93710
H          4.79510       -2.42290        1.71250
