19
TSA8_9_NH2_CHF2_Cl
C          2.92070        0.12200       -1.21230
C          1.48300       -0.22600       -1.55120
N          3.02010        0.57390        0.17820
H          3.50860       -0.81870       -1.30710
C          1.12900       -1.63040       -1.95710
C          3.60360        1.13740       -2.17250
C          3.07270        2.55580       -2.12220
C          1.89410        2.92100       -2.63290
O          0.59930        0.61010       -1.44620
Cl         5.34550        1.19420       -1.76130
H          3.54970        0.76730       -3.21960
H          3.69370        3.33430       -1.68710
H          1.24250        2.21120       -3.12660
H          1.58260        3.95950       -2.57900
H          2.44410        1.43570        0.32040
H          2.66280       -0.17440        0.81760
F         -0.23040       -1.74790       -2.18960
F          1.81500       -1.97100       -3.10810
H          1.41360       -2.32990       -1.14310
