18
TSA8_9_CF3_I_CN
C          2.18830        1.76420        0.42150
C          1.04070        1.50840       -0.60540
C          2.20320        0.60920        1.47550
H          3.17230        1.76460       -0.09850
I          1.74050        1.07950       -2.57840
C          1.99460        3.20210        0.96930
C          0.61030        3.35830        1.59340
C         -0.44950        2.70770        0.68890
O          0.04720        2.53000       -0.62730
C          3.05310        3.70950        1.85430
H          2.02240        3.87690        0.08450
H          0.53000        2.92970        2.61790
H         -1.33960        3.36950        0.67580
H         -0.78780        1.73180        1.10710
F          3.30640       -0.19750        1.25650
F          2.27090        1.08380        2.77170
F          1.07560       -0.19410        1.37430
N          3.86640        4.14510        2.55330
