23
TSA8_9_CCl3_Br_Et
C          1.70310       -1.56750        1.66230
C          3.06420       -1.41620        2.36500
C          1.81640       -2.13230        0.19820
H          1.34550       -0.52100        1.53030
Br         4.75280       -2.08620        1.73000
C          0.67390       -2.21290        2.68100
C         -0.78110       -1.93210        2.34290
C         -1.54690       -1.13030        3.09220
O          3.11150       -0.79280        3.41460
C          0.89210       -3.70440        3.05650
H          0.86990       -1.66110        3.62810
H         -1.24080       -2.39270        1.47920
H         -1.15640       -0.63730        3.97700
H         -2.58310       -0.96150        2.81810
Cl         2.57460       -3.74610        0.06420
Cl         0.25000       -2.19390       -0.64730
Cl         2.81050       -1.01700       -0.78620
C          0.19070       -4.74390        2.16850
H          0.45380       -3.86340        4.06720
H          1.98000       -3.91290        3.13790
H         -0.91090       -4.62360        2.22770
H          0.43310       -5.76180        2.53960
H          0.47060       -4.68520        1.10870
