23
TSA8_9_CCl3_Br_Et
C          1.47870       -0.49480        0.17110
C          2.10770       -0.67800        1.35750
C          2.14040       -0.54110       -1.18840
H          0.41970       -0.28060        0.17990
Br         3.99740       -1.00770        1.49030
C          0.04710       -3.36210        3.95550
C          0.31650       -2.66490        2.83850
C          0.18670       -1.16450        2.79400
O          1.43500       -0.61860        2.53780
C          0.23300       -4.85410        4.03410
H         -0.28670       -2.84310        4.84950
H          0.65990       -3.17910        1.94640
H         -0.16160       -0.78040        3.77700
H         -0.56400       -0.85610        2.04130
Cl         2.79400       -2.16890       -1.51350
Cl         0.93270       -0.18050       -2.44870
Cl         3.43640        0.67580       -1.33160
C         -0.66380       -5.60670        3.05540
H         -0.01150       -5.18860        5.06570
H          1.29630       -5.10200        3.82940
H         -1.73130       -5.38330        3.26200
H         -0.49730       -6.69920        3.17250
H         -0.42530       -5.32830        2.00800
