23
TSA8_9_CCl3_Br_Et
C          1.29810       -1.90130        1.25220
C          1.47800       -0.41580        1.67250
C          2.31940       -2.35560        0.15860
H          0.30550       -1.91470        0.75460
Br         3.12700        0.01190        2.61870
C          1.24330       -2.75400        2.56340
C          0.42950       -2.00610        3.64460
C         -0.40540       -0.84240        3.09470
O          0.36770        0.12350        2.38690
C          0.77570       -4.22180        2.40940
H          2.26670       -2.81420        2.99190
H         -0.11680       -2.67630        4.34280
H         -0.87410       -0.33240        3.96140
H         -1.22130       -1.22080        2.44320
Cl         3.97290       -2.60930        0.78810
Cl         1.80730       -3.86260       -0.64780
Cl         2.40640       -1.13690       -1.14370
C         -0.64270       -4.38260        1.85740
H          0.81660       -4.71250        3.40620
H          1.48550       -4.78030        1.76960
H         -1.38050       -3.88720        2.52110
H         -0.88880       -5.46470        1.80430
H         -0.72640       -3.96230        0.83650
