19
TSA8_9_F_Me_NO2
C          3.22390        0.10060        1.04980
C          1.74290        0.39950        1.13470
F          3.43390       -0.97130        0.19410
H          3.72680        0.99060        0.61370
C          1.23440        1.57430        1.91940
C          3.84780       -0.19940        2.43200
C          3.21760       -1.42510        3.05690
C          2.56620       -1.37230        4.22260
O          0.94610       -0.30850        0.53690
N          5.28040       -0.40030        2.30740
H          3.68070        0.68570        3.08540
H          3.29600       -2.37950        2.54360
H          2.46350       -0.44010        4.76910
H          2.12750       -2.27360        4.63860
H          1.49960        1.46990        2.99080
H          0.12850        1.64640        1.84160
H          1.68060        2.50880        1.51990
O          5.71700       -1.29810        1.65080
O          6.11200        0.40680        2.93070
