19
TSA8_9_F_Me_NO2
C          3.20150        0.06830        1.14830
C          1.69720        0.17140        1.46010
F          3.39370       -1.01680        0.30790
H          3.54920        0.97990        0.61560
C          1.25110        1.51090        2.06260
C          3.98650       -0.12860        2.45670
C          3.41330       -1.34170        3.19670
C          1.90900       -1.13210        3.41090
O          1.21850       -0.95870        2.18180
N          5.40590       -0.29360        2.20890
H          3.84300        0.76770        3.09980
H          3.57070       -2.26810        2.60140
H          1.71660       -0.28440        4.10240
H          1.50680       -2.03640        3.91300
H          1.73890        1.71930        3.03540
H          0.15100        1.50460        2.20670
H          1.50800        2.33210        1.36130
O          5.80960       -1.20690        1.55290
O          6.26380        0.56260        2.72000
