23
TSA8_9_OH_Et_NH2
C          2.90450        1.73360       -1.14500
C          1.34410        1.57830       -1.12780
O          3.46390        1.18640        0.02130
H          3.34770        1.20740       -2.02290
C          0.80680        1.40890       -2.55860
C          3.23040        3.23340       -1.20950
C          2.64280        3.94960        0.02440
C          1.39590        3.22040        0.55390
O          0.65460        2.67340       -0.51260
N          4.66930        3.47220       -1.30550
H          2.73410        3.64490       -2.11730
H          3.36240        4.01670        0.86980
H          0.77180        3.93210        1.13150
H          1.67230        2.41110        1.26790
H          3.33180        0.20400       -0.03430
C         -0.70250        1.18310       -2.57210
H          1.29280        0.52500       -3.02580
H          1.04370        2.30770       -3.16740
H         -0.96300        0.28010       -1.98060
H         -1.04530        1.03770       -3.61830
H         -1.23360        2.06310       -2.15100
H          4.83590        4.50150       -1.39120
H          5.03150        3.02450       -2.17850
