20
TSA8_9_Br_CH2F_Me
C          2.70330        1.84240       -1.76610
C          1.34800        1.49300       -1.06740
Br         4.20010        1.32020       -0.62570
H          2.82770        1.23650       -2.69060
C          0.33580        0.96650       -2.08650
C          2.70860        3.34500       -2.09440
C          2.53900        4.16940       -0.80310
C          1.70600        3.40710        0.24230
O          0.73990        2.59620       -0.38710
C          3.93690        3.79260       -2.89120
H          1.81480        3.53370       -2.72920
H          3.50270        4.44210       -0.31920
H          1.21460        4.13570        0.91900
H          2.34910        2.77800        0.89700
F         -0.83330        0.60790       -1.44060
H          0.74300        0.06960       -2.59880
H          0.10630        1.74490       -2.84500
H          4.00600        3.21480       -3.83750
H          4.86900        3.63890       -2.30830
H          3.85040        4.87080       -3.14440
