23
TSA8_9_Cl_CCl3_Et
C          3.16620        1.88200       -1.35870
C          1.72950        1.39710       -1.33800
Cl         4.13300        0.77440       -0.33390
H          3.54390        1.79950       -2.40040
C          1.05310        0.92960       -2.60900
C          3.26130        3.37760       -0.93630
C          2.92280        3.57710        0.52830
C          1.87080        4.30230        0.92140
O          1.11750        1.37840       -0.27930
C          4.61420        4.05150       -1.28640
H          2.51690        3.92300       -1.56160
H          3.54930        3.12080        1.28840
H          1.21360        4.77860        0.20080
H          1.66140        4.42210        1.97950
Cl         1.02630        2.25000       -3.80600
Cl         1.93910       -0.45740       -3.29400
Cl        -0.63340        0.41660       -2.31540
C          5.85750        3.51430       -0.57430
H          4.52770        5.13280       -1.03910
H          4.78240        3.97470       -2.38280
H          5.75070        3.58810        0.52720
H          6.73670        4.12110       -0.87740
H          6.07050        2.46990       -0.86860
