23
TSA8_9_Cl_CCl3_Et
C          2.15790        0.28930       -0.38170
C          1.52640        1.26550       -1.09200
Cl         2.69600        0.37140        1.29000
H          2.37200       -0.66910       -0.83340
C          1.09810        1.03630       -2.53740
C          3.45400        4.31740       -1.07000
C          3.21960        3.59200        0.03960
C          1.80730        3.23650        0.41600
O          1.21890        2.50630       -0.59930
C          4.81330        4.73920       -1.58100
H          2.60390        4.63960       -1.66720
H          4.02710        3.25110        0.67800
H          1.23700        4.17950        0.54650
H          1.75010        2.71280        1.38620
Cl         1.95130        2.21140       -3.56940
Cl         1.42500       -0.59260       -3.20880
Cl        -0.65110        1.33410       -2.69480
C          6.00320        4.25980       -0.75130
H          4.83750        5.84930       -1.62780
H          4.92790        4.34400       -2.61250
H          5.94620        4.66500        0.28120
H          6.94480        4.61940       -1.21830
H          6.02940        3.14950       -0.72010
