23
TSA8_9_Cl_CCl3_Et
C          3.18310        1.90040       -1.12080
C          1.64840        1.59880       -1.00490
Cl         3.98490        1.13160        0.28310
H          3.61210        1.43240       -2.03190
C          1.02620        1.00370       -2.28370
C          3.38300        3.43270       -1.17410
C          2.76620        4.09910        0.07300
C          1.51070        3.33720        0.53070
O          0.88290        2.72860       -0.57730
C          4.80380        3.94350       -1.51710
H          2.76090        3.77230       -2.03110
H          3.44770        4.17150        0.94510
H          0.81440        4.03850        1.03450
H          1.76620        2.56590        1.29310
Cl         1.15060        2.12670       -3.66490
Cl         1.81810       -0.53700       -2.71160
Cl        -0.69860        0.65260       -2.00100
C          5.90680        3.64870       -0.49910
H          4.74710        5.04730       -1.64200
H          5.11050        3.51050       -2.49390
H          5.66990        4.08440        0.49180
H          6.85430        4.10600       -0.85530
H          6.08830        2.56200       -0.40420
