21
TSA8_9_CBr3_Me_OH
C          1.40200       -2.00200        0.70920
C          2.80330       -2.19080        1.33700
C          1.23200       -0.57100        0.06540
H          1.29780       -2.76370       -0.09430
C          4.06880       -2.24190        0.52700
C          0.31180       -2.35850        1.78810
C         -1.08880       -2.44970        1.23650
C         -2.09420       -1.71040        1.71680
O          2.91350       -2.37740        2.54200
O          0.60210       -3.62420        2.32920
H          0.36880       -1.59020        2.59660
H         -1.28900       -3.15410        0.43390
H         -1.93650       -1.00190        2.52350
H         -3.08900       -1.81440        1.29630
Br        -0.49770       -0.22950       -0.75430
Br         1.53800        0.83060        1.37810
Br         2.42230       -0.26350       -1.43940
H          4.93270       -2.50000        1.17710
H          4.31100       -1.26490        0.07760
H          3.98080       -3.02200       -0.25800
H          0.22490       -3.64210        3.24830
