21
TSA8_9_CBr3_Me_OH
C          1.40850       -0.43190       -0.03800
C          1.99420       -1.46870        0.62250
C          2.02650        0.39130       -1.15420
H          0.39710       -0.15960        0.23620
C          3.40230       -1.92330        0.35110
C         -0.98350       -3.63330        3.61690
C         -0.38260       -3.51490        2.42510
C         -0.03370       -2.19060        1.81630
O          1.32510       -2.18890        1.56620
O         -1.27310       -4.85100        4.12770
H         -1.24750       -2.75010        4.18810
H         -0.13070       -4.40910        1.86200
H         -0.31180       -1.33060        2.46540
H         -0.59580       -2.12920        0.86020
Br         0.76330        1.74800       -1.72640
Br         3.63510        1.32600       -0.60540
Br         2.39590       -0.70880       -2.71070
H          3.65170       -2.78260        1.00970
H          4.13250       -1.12150        0.56850
H          3.50910       -2.26890       -0.69460
H         -1.05170       -5.67340        3.66540
