21
TSA8_9_CBr3_Me_OH
C          0.74730       -1.12820        0.76180
C          1.54460       -2.34410        0.13310
C          1.44970        0.26600        0.74750
H         -0.13890       -0.98250        0.10480
C          3.03650       -2.41240        0.46650
C          0.18730       -1.56110        2.13700
C         -0.71400       -2.80180        1.95200
C         -0.39750       -3.57000        0.65970
O          0.99380       -3.62800        0.44690
O          1.24890       -1.87060        3.00360
H         -0.43380       -0.75310        2.58430
H         -0.66210       -3.43840        2.86210
H         -0.89290       -3.09330       -0.21560
H         -0.82030       -4.59430        0.72180
Br         0.17780        1.65440        1.23310
Br         2.95210        0.46100        1.97370
Br         2.05010        0.70070       -1.04910
H          3.48460       -3.28260       -0.05760
H          3.20190       -2.54310        1.55490
H          3.56980       -1.51480        0.10130
H          0.89710       -1.80250        3.92970
