18
TSA8_9_NH2_NO2_Cl
C          2.89900       -0.55730        1.08630
C          1.44120       -0.32970        1.61320
N          2.87680       -1.05970       -0.29040
H          3.46540        0.40070        1.07830
N          1.27110        1.03280        2.08060
C          3.62660       -1.53190        2.02450
C          2.83820       -2.83940        2.18780
C          1.32390       -2.56760        2.20190
O          1.06690       -1.25110        2.63980
Cl         5.30780       -1.85020        1.51760
H          3.66350       -1.04480        3.02420
H          3.04820       -3.59060        1.39580
H          0.82670       -3.30120        2.86910
H          0.87260       -2.72690        1.19540
H          2.43110       -0.34540       -0.91040
H          2.32850       -1.94480       -0.36920
O          0.94230        1.25530        3.20710
O          1.43960        2.03580        1.24610
