25
TSA8_9_OH_Et_OMe
C          3.17270       -0.50490       -2.12270
C          1.76960       -1.11950       -2.29290
O          3.12800        0.53460       -1.17610
H          3.94480       -1.24620       -1.80870
C          1.37180       -2.01640       -1.11860
C          3.58910        0.04870       -3.50450
C          2.36320        0.62410       -4.26750
C          1.22660        0.98890       -3.30250
O          0.77170       -0.12000       -2.52330
O          4.14820       -1.02170       -4.25210
H          4.35690        0.83010       -3.30020
H          1.93450       -0.16760       -4.92210
H          0.37530        1.36040       -3.91040
H          1.54220        1.81840       -2.63460
H          3.15550        0.11220       -0.27850
C          0.05360       -2.72680       -1.41050
H          1.27940       -1.42410       -0.18350
H          2.15780       -2.79040       -0.97790
H         -0.76970       -1.98980       -1.52240
H         -0.19560       -3.41200       -0.57400
H          0.13840       -3.32170       -2.34590
C          4.84700       -0.54460       -5.38190
H          5.55790        0.27260       -5.13040
H          4.13770       -0.23690       -6.17990
H          5.45790       -1.37820       -5.78550
