18
TSA8_9_CH2F_Cl_CN
C          2.29750        1.71300       -0.50520
C          0.98420        1.20420       -1.18080
C          2.30020        1.29060        0.97990
H          3.16690        1.19730       -0.97160
Cl         1.36960        0.35420       -2.70270
C          2.37910        3.23760       -0.75260
C          1.15110        3.93940       -0.15830
C         -0.11330        3.08790       -0.37320
O          0.04690        2.23620       -1.48640
C          3.62440        3.89840       -0.33280
H          2.32970        3.37660       -1.85590
H          1.24180        4.15460        0.93090
H         -0.97740        3.76460       -0.53120
H         -0.36320        2.48120        0.52660
F          3.55340        1.46310        1.53770
H          2.04480        0.20980        1.04960
H          1.55460        1.84150        1.58640
N          4.59020        4.45480       -0.01910
