22
TSA8_9_NH2_CCl3_CH2F
C          3.20810        1.06490       -1.19320
C          1.71020        1.07430       -1.64490
N          3.27130        0.86940        0.25770
H          3.77090        0.22750       -1.66240
C          1.25720       -0.13950       -2.47440
C          3.90600        2.39660       -1.57230
C          3.04170        3.59030       -1.11030
C          1.53620        3.33350       -1.31750
O          1.32400        2.29700       -2.25350
C          4.18460        2.48550       -3.08900
H          4.90290        2.45530       -1.08260
H          3.39080        4.53210       -1.58740
H          1.03520        4.26440       -1.65640
H          1.06130        3.07920       -0.34120
H          2.73670        1.61680        0.75750
H          2.85150       -0.05540        0.50600
Cl         2.07630       -0.18520       -4.05790
Cl         1.58560       -1.66380       -1.60950
Cl        -0.50000       -0.04350       -2.75240
F          5.00740        1.44610       -3.48650
H          4.70690        3.43910       -3.31620
H          3.25950        2.45920       -3.69660
