21
TSA8_9_CF3_CF3_OH
C          2.05360        0.15430        0.26730
C          1.74000        1.48530        0.19230
C          1.69780       -0.97330        1.21420
H          2.69760       -0.21560       -0.52850
C          2.31550        2.24330       -0.98300
C          1.62170        2.81680        4.32710
C          1.51210        1.93290        3.32230
C          0.42300        2.05040        2.28420
O          0.96360        2.24010        1.03150
O          2.60100        2.70810        5.25250
H          0.91960        3.64040        4.41360
H          2.22590        1.11930        3.25440
H         -0.20310        2.94060        2.50700
H         -0.28750        1.20800        2.28890
F          2.86880       -1.48210        1.74330
F          0.86780       -0.65530        2.25370
F          1.08310       -1.97080        0.48030
F          1.86570        1.68770       -2.16790
F          1.92800        3.57170       -0.94380
F          3.69780        2.18700       -0.94830
H          3.25850        1.99790        5.23250
