24
TSA8_9_OMe_Me_CF3
C          2.46980        0.85530       -0.93410
C          1.28440        0.04100       -1.40880
O          2.15210        1.45940        0.31150
H          3.34510        0.16210       -0.86680
C          1.43400       -1.42890       -1.66570
C          2.86540        1.94790       -1.96370
C          1.77960        2.99780       -2.09650
C          1.14840        3.22760       -3.25140
O          0.19820        0.57420       -1.57780
C          4.19250        2.63280       -1.57920
H          3.03430        1.44520       -2.94390
H          1.50550        3.58710       -1.22580
H          1.38980        2.66420       -4.14680
H          0.37800        3.99050       -3.30300
C          2.71590        0.73520        1.38130
H          3.82250        0.84240        1.38500
H          2.40770       -0.33360        1.35800
H          2.33470        1.16270        2.33150
H          2.20020       -1.59300       -2.45180
H          0.47290       -1.86940       -2.00720
H          1.75140       -1.94090       -0.73370
F          4.08430        3.28060       -0.36060
F          5.20660        1.69420       -1.49920
F          4.53610        3.56090       -2.54680
