24
TSA8_9_OMe_Me_CF3
C          1.49060       -0.06460       -0.10170
C          1.35360       -0.30980       -1.42680
O          1.46260        1.18770        0.40950
H          1.61000       -0.90570        0.57760
C          1.35810       -1.73260       -1.91470
C          3.55990        3.01350       -3.02050
C          2.85940        2.31750       -2.11110
C          1.39310        2.01970       -2.29840
O          1.19050        0.65410       -2.38260
C          5.02230        3.28970       -2.83310
H          3.07080        3.38490       -3.91730
H          3.36070        1.94910       -1.22100
H          1.03420        2.47090       -3.24790
H          0.78240        2.46590       -1.48900
C          1.53730        1.46480        1.75830
H          2.42260        2.10470        1.95190
H          1.62050        0.54220        2.37410
H          0.62340        2.01340        2.06700
H          2.18960       -1.86660       -2.63750
H          0.39680       -1.94770       -2.42590
H          1.48920       -2.46680       -1.09090
F          5.22000        4.01710       -1.67290
F          5.71840        2.09750       -2.75160
F          5.49950        4.01710       -3.90770
