24
TSA8_9_Et_CCl3_CN
C          2.00060       -0.17580       -1.65210
C          1.84040       -1.62410       -1.09530
C          1.82420        1.26370       -0.99830
H          3.09600       -0.27010       -1.58620
C          1.51810       -2.14330        0.28790
C          1.67560       -0.05420       -3.20730
C          0.86280       -1.20280       -3.77890
C         -0.41340       -1.33680       -3.41550
O          2.13530       -2.52060       -1.87690
C          2.86970        0.18520       -4.04520
H          1.04100        0.80560       -3.41920
H          1.30750       -1.90350       -4.48000
H         -1.01250       -2.14680       -3.80760
H         -0.86350       -0.62200       -2.72870
C          3.09360        1.84970       -0.35020
H          0.90280        1.42280       -0.39660
H          1.70160        1.99130       -1.83500
H          3.23810        1.44940        0.66640
H          3.03400        2.96460       -0.30410
H          3.98940        1.63130       -0.97670
Cl         2.92210       -3.11260        0.84060
Cl         1.17490       -0.90530        1.50660
Cl         0.12640       -3.26370        0.18070
N          3.77690        0.42530       -4.71920
