20
TSA8_9_H_CH2F_CHF2
C          1.86320        0.16420       -0.10150
C          1.51430        1.38000       -0.56610
H          2.26230        0.00340        0.89020
H          1.73990       -0.72010       -0.71960
C          0.94350        1.51470       -1.94990
C          2.84520        5.10260        0.76900
C          3.28790        3.88870        1.12760
C          2.33600        2.74870        1.33590
O          1.63850        2.52740        0.15980
C          3.78870        6.24530        0.54480
H          1.78050        5.27180        0.62990
H          4.35200        3.71750        1.26830
H          1.61870        3.01380        2.14210
H          2.92110        1.86880        1.66230
F         -0.31640        2.07850       -1.87800
H          0.86870        0.53670       -2.47260
H          1.60050        2.18020       -2.54810
F          4.49380        6.51240        1.70400
F          4.67280        5.93360       -0.47240
H          3.21290        7.14930        0.25580
