24
TSA8_9_CN_Et_CF3
C          2.89730       -0.59510       -1.52600
C          1.65010       -1.43060       -1.23700
C          2.60040        0.74750       -0.93130
H          3.74570       -1.05320       -0.98290
C          1.72880       -2.67350       -0.38420
C          3.10040       -0.57030       -3.12370
C          2.50020        0.72320       -3.58450
C          1.22240        0.85010       -3.88230
O          0.58190       -1.13730       -1.75340
C          4.42760       -0.75850       -3.94210
H          2.53550       -1.47080       -3.46130
H          3.11410        1.61840       -3.47760
H          0.57480       -0.01370       -3.90100
H          0.83680        1.84630       -4.03830
N          2.32220        1.75820       -0.46190
C          0.49840       -3.57210       -0.55180
H          1.85870       -2.37900        0.67690
H          2.61020       -3.25850       -0.71420
H         -0.42730       -3.05390       -0.22160
H          0.62610       -4.50020        0.04170
H          0.39070       -3.85570       -1.62300
F          5.27990       -1.70080       -3.40020
F          4.06640       -1.21290       -5.20720
F          5.13120        0.42140       -4.13610
