24
TSA8_9_CN_Et_CF3
C          1.64460       -0.06770       -0.01830
C          1.53810       -1.09820       -0.91270
C          1.84840        1.32890       -0.27520
H          1.57420       -0.28860        1.03600
C          1.71710       -2.47890       -0.34010
C          3.30080       -0.87870       -4.51180
C          2.86730        0.03590       -3.62360
C          1.45690        0.04300       -3.12050
O          1.33280       -1.02730       -2.27070
C          4.70230       -0.85440       -5.07250
H          2.61220       -1.62790       -4.89260
H          3.54160        0.81120       -3.28240
H          0.75660       -0.00810       -3.99080
H          1.22110        0.97420       -2.59930
N          2.01360        2.45060       -0.50140
C          0.52300       -3.33070       -0.65990
H          1.88200       -2.42080        0.75690
H          2.63580       -2.98580       -0.75310
H         -0.40160       -2.82650       -0.33240
H          0.60530       -4.29930       -0.13670
H          0.47490       -3.52300       -1.75310
F          5.55680       -1.51100       -4.20950
F          4.72240       -1.49810       -6.29830
F          5.14530        0.44580       -5.25490
