20
TSA8_9_H_Me_CCl3
C          3.00730        2.39750        0.38010
C          1.68400        1.57750        0.26490
H          3.78310        1.77130        0.87120
H          3.38960        2.65050       -0.63160
C          0.84210        2.05950       -0.91700
C          2.75020        3.63480        1.25880
C          2.27910        3.16320        2.65820
C          1.63180        1.76810        2.60510
O          0.86090        1.62100        1.43380
C          3.95000        4.61290        1.33810
H          1.90430        4.18860        0.79640
H          3.09710        3.10280        3.40740
H          0.99490        1.62490        3.50220
H          2.40640        0.96750        2.64370
H          0.52380        3.11350       -0.77640
H         -0.06320        1.42380       -1.00940
H          1.42220        1.97510       -1.85980
Cl         3.53310        6.02390        2.35000
Cl         5.40820        3.83810        2.02390
Cl         4.36320        5.23320       -0.28480
