21
TSA8_9_CHF2_CN_CBr3
C          2.35370        2.11480       -0.25840
C          1.73440        1.36970       -1.44560
C          2.21580        1.22610        1.00790
H          3.43100        2.20430       -0.50470
C          2.21370        0.06410       -1.82910
C          1.77040        3.58250       -0.09510
C          0.49610        3.62650        0.73660
C         -0.68860        3.19000        0.30160
O          0.89980        1.89890       -2.15880
C          2.78410        4.67340        0.39560
H          1.54090        3.97640       -1.10970
H          0.53730        4.05330        1.73480
H         -0.82090        2.78290       -0.69040
H         -1.55640        3.26280        0.94950
F          2.93550        0.05430        0.85490
F          2.67600        1.84300        2.14510
H          1.14840        0.96440        1.17000
N          2.59930       -0.98560       -2.13560
Br         1.95310        6.43000        0.24930
Br         3.41330        4.53500        2.22670
Br         4.34890        4.75410       -0.75880
