15
TSA8_9_CN_F_H
C          1.61610       -0.01260        0.08740
C          1.62490       -0.73480        1.23120
C          1.69370       -0.55290       -1.25300
H          1.50710        1.06250        0.15150
F          1.49110       -0.06510        2.40440
C          1.88740       -5.07670       -0.37720
C          1.81900       -3.74510       -0.38490
C          0.96550       -2.98200        0.58120
O          1.73490       -2.08930        1.29430
H          2.50440       -5.58250       -1.11160
H          1.32740       -5.66620        0.34200
H          2.38690       -3.19720       -1.12560
H          0.45730       -3.66540        1.29980
H          0.17120       -2.45320        0.02120
N          1.75310       -0.94610       -2.34250
