18
TSA8_9_CH2F_H_OH
C          1.68490        1.59770        1.45420
C          1.51410        1.68550       -0.04390
C          1.36400        0.17310        1.93990
H          2.76310        1.78700        1.65650
H          2.36750        1.94610       -0.66160
C          0.90360        2.68000        2.25920
C         -0.60820        2.59990        2.16740
C         -1.29530        2.95840        1.07930
O          0.45830        1.40100       -0.58590
O          1.27250        2.55700        3.61050
H          1.23150        3.68400        1.89790
H         -1.16850        2.28560        3.04370
H         -0.79830        3.33220        0.19160
H         -2.37910        2.90300        1.08100
F          2.15410       -0.74870        1.27470
H          0.29560       -0.07180        1.75960
H          1.56720        0.07980        3.02760
H          1.08850        3.43140        4.04490
