18
TSA8_9_CH2F_H_OH
C          1.82750        0.07390       -0.00110
C          1.20560        1.26080        0.02700
C          1.97860       -0.81100        1.20400
H          2.23700       -0.27630       -0.94390
H          1.12860        1.83120       -0.89610
C         -0.14700        4.37120        3.19970
C         -0.47770        3.21410        2.60610
C         -0.07510        2.90780        1.19240
O          0.67450        1.75270        1.17130
O         -0.51530        4.63730        4.47150
H          0.42620        5.11980        2.65910
H         -1.05410        2.47340        3.15270
H          0.51350        3.74620        0.75580
H         -0.99330        2.76290        0.58410
F          3.32110       -1.03220        1.44510
H          1.48280       -1.78270        0.99920
H          1.51900       -0.37060        2.11320
H         -1.02650        4.01160        5.00550
