23
TSA8_9_CH2F_CHF2_CBr3
C          1.88150        0.14920        0.00350
C          1.50650        1.42070        0.33160
C          1.96710       -1.09680        0.84440
H          2.15880       -0.03620       -1.03070
C          1.49430        2.45780       -0.76270
C          3.16180        1.85680        4.28520
C          2.63620        1.19120        3.24360
C          1.19540        1.36480        2.83150
O          1.12230        1.89070        1.55830
C          4.60600        1.69360        4.68250
H          2.53600        2.53640        4.85690
H          3.26900        0.51820        2.67580
H          0.69720        2.08530        3.51460
H          0.60280        0.43610        2.91460
F          3.26360       -1.57520        0.80780
H          1.29700       -1.86150        0.39950
H          1.67570       -0.99960        1.89170
F          0.21580        2.96630       -0.89480
F          2.35680        3.48480       -0.42540
H          1.80920        2.04980       -1.74660
Br         4.99990        2.81010        6.21710
Br         4.98050       -0.14930        5.15860
Br         5.77380        2.22860        3.22810
