23
TSA8_9_CH2F_CHF2_CBr3
C          2.72600        0.88210        1.34690
C          1.34810        1.44130        0.84460
C          2.68170       -0.65230        1.25510
H          3.52250        1.20790        0.64270
C          1.49140        2.33660       -0.38650
C          3.01610        1.47930        2.76110
C          1.82900        1.21590        3.71500
C          0.48850        1.28470        2.97090
O          0.60750        2.12740        1.84850
C          4.38610        1.18940        3.43970
H          3.01950        2.57770        2.57470
H          1.87280        0.24650        4.25410
H         -0.29590        1.66210        3.65850
H          0.15080        0.26900        2.65670
F          3.93620       -1.19930        1.42320
H          2.34860       -0.94370        0.23500
H          1.97140       -1.08930        1.98630
F          0.23940        2.71400       -0.83550
F          2.22320        3.46850       -0.07290
H          2.00570        1.78080       -1.19850
Br         4.60020        2.37200        4.96840
Br         4.59630       -0.61680        4.13500
Br         5.86250        1.57340        2.23780
