23
TSA8_9_CBr3_NH2_OMe
C          2.65810        0.85370        0.67860
C          1.58430        1.42440       -0.24430
C          2.07360       -0.29830        1.56940
H          3.42380        0.36010        0.04240
N          1.67940        1.27720       -1.58690
C          3.42110        2.01990        1.39780
C          2.52190        2.91060        2.23960
C          2.33460        4.19980        1.93300
O          0.62270        2.01470        0.22440
O          4.48450        1.48560        2.16980
H          3.85790        2.62090        0.56340
H          2.03300        2.51590        3.11860
H          2.81070        4.64730        1.06590
H          1.69630        4.81890        2.55350
Br         1.33010       -1.68170        0.42010
Br         3.43980       -1.20150        2.61720
Br         0.64510        0.21830        2.78250
H          0.95000        1.66140       -2.20670
H          2.47550        0.78120       -2.01280
C          5.29410        2.50140        2.72850
H          6.29560        2.07490        2.94070
H          4.85950        2.84460        3.69230
H          5.45390        3.36110        2.03990
