23
TSA8_9_CBr3_NH2_OMe
C          1.35540       -0.14550       -0.14440
C          1.52220        1.18470       -0.28250
C          1.48720       -0.86790        1.17870
H          1.12610       -0.73580       -1.02780
N          1.39640        1.77780       -1.57180
C          4.78470        3.33150        1.56560
C          3.49750        3.09770        1.88050
C          2.39480        3.17250        0.86640
O          1.79190        1.93290        0.82130
O          5.79980        3.24010        2.46890
H          5.04210        3.59870        0.54550
H          3.21530        2.82640        2.89280
H          2.79240        3.48070       -0.12330
H          1.65550        3.92670        1.20600
Br         1.16740       -2.76160        0.92550
Br         3.28050       -0.66020        1.89420
Br         0.20160       -0.21250        2.47750
H          1.45630        2.79460       -1.70510
H          1.19220        1.19680       -2.39970
C          5.67340        2.86680        3.79250
H          6.67300        2.87560        4.27120
H          5.25730        1.83810        3.86010
H          5.01380        3.57930        4.33190
