23
TSA8_9_CBr3_NH2_OMe
C          2.75310        0.69660        0.76290
C          1.78480        1.47020       -0.16790
C          1.96410       -0.34580        1.62900
H          3.42880        0.07470        0.13380
N          2.45970        2.07080       -1.31860
C          3.65160        1.74240        1.49080
C          2.79720        2.82630        2.16030
C          1.83850        3.42340        1.12400
O          1.00880        2.42890        0.54130
O          4.52360        1.11100        2.41040
H          4.24400        2.23690        0.68310
H          2.24610        2.42850        3.03030
H          2.40020        3.98130        0.34230
H          1.19500        4.16890        1.63490
Br         1.05110       -1.58230        0.43710
Br         3.14380       -1.45840        2.70090
Br         0.58740        0.35750        2.81000
H          1.73450        2.52110       -1.92170
H          2.89770        1.30680       -1.88150
C          5.54190        1.99510        2.83140
H          6.07100        2.47130        1.97620
H          6.30450        1.40840        3.38340
H          5.13790        2.75620        3.53330
