23
TSA8_9_OH_Et_NO2
C          2.93570        0.42420       -2.11790
C          1.38620        0.34460       -1.89050
O          3.57220        0.88540       -0.95350
H          3.35540       -0.57710       -2.37310
C          0.77970       -0.80470       -2.71260
C          3.19340        1.40640       -3.27280
C          2.63950        2.80200       -2.91640
C          1.45770        2.69600       -1.93660
O          0.68370        1.55110       -2.21490
N          4.59640        1.47430       -3.63710
H          2.61530        1.03320       -4.14740
H          3.39150        3.46930       -2.44210
H          0.83320        3.60960       -2.01530
H          1.80900        2.65940       -0.88010
H          3.48750        0.16190       -0.27910
C         -0.71280       -0.96740       -2.43700
H          1.28600       -1.75530       -2.43750
H          0.93050       -0.62310       -3.79820
H         -0.88530       -1.16790       -1.35830
H         -1.10720       -1.82120       -3.02740
H         -1.26830       -0.05240       -2.73300
O          5.41330        1.84990       -2.85040
O          4.97750        1.11920       -4.84520
