23
TSA8_9_H_Me_Et
C          3.22540        1.51330       -1.16500
C          1.79350        1.05830       -1.01880
H          3.87860        0.82300       -0.59060
H          3.50770        1.44170       -2.23860
C          1.00300        0.65520       -2.22690
C          3.43200        2.97500       -0.70590
C          3.15800        3.13000        0.77640
C          2.19510        3.93360        1.23860
O          1.27490        1.00320        0.08640
C          4.84860        3.49260       -1.05510
H          2.72270        3.60840       -1.28680
H          3.75450        2.57110        1.49080
H          1.57080        4.51080        0.56360
H          2.02670        4.01740        2.30720
H          0.93660        1.51160       -2.93040
H         -0.02480        0.34630       -1.94070
H          1.50460       -0.19600       -2.73350
C          6.00210        2.73990       -0.38290
H          4.91620        4.56480       -0.76760
H          4.99000        3.43180       -2.15640
H          5.93790        2.81360        0.72160
H          6.96520        3.19230       -0.70070
H          6.01200        1.67270       -0.68350
