23
TSA8_9_CBr3_H_Et
C          1.27350       -1.44430        1.55890
C          0.22370       -0.65100        0.80500
C          2.13740       -2.23170        0.52670
H          1.97070       -0.72350        2.04430
H         -0.55370       -1.16560        0.24900
C          0.51850       -2.23820        2.69520
C         -0.09990       -1.20130        3.62050
C         -1.42170       -1.09060        3.78750
O          0.23870        0.57010        0.82130
C          1.35160       -3.18770        3.59800
H         -0.30110       -2.84510        2.24660
H          0.55450       -0.52620        4.16590
H         -1.82090       -0.33610        4.45740
H         -2.11230       -1.74300        3.26240
Br         2.76370       -1.04360       -0.88850
Br         3.80150       -2.88520        1.29790
Br         1.15050       -3.66500       -0.34510
C          1.51270       -4.61230        3.05160
H          0.78720       -3.35370        4.54460
H          2.31990       -2.71970        3.87530
H          0.51300       -5.07020        2.89260
H          2.06070       -5.22820        3.79570
H          2.05950       -4.67460        2.10410
