23
TSA8_9_CBr3_H_Et
C          1.38770       -1.50060        1.76510
C          0.31670       -0.59620        1.11240
C          2.24580       -2.17640        0.65600
H          2.08050       -0.82400        2.31410
H         -0.42720       -1.15400        0.49940
C          0.63110       -2.40530        2.80820
C         -0.10470       -1.45130        3.76780
C         -1.03800       -0.53000        2.97930
O         -0.30700        0.25150        2.05740
C          1.47120       -3.38070        3.67100
H         -0.16080       -3.00160        2.30160
H          0.62530       -0.84080        4.34510
H         -1.54500        0.14980        3.69530
H         -1.83730       -1.11030        2.46430
Br         2.83300       -0.85340       -0.65020
Br         3.92400       -2.87660        1.34910
Br         1.26740       -3.54350       -0.32240
C          1.68620       -4.76000        3.03530
H          0.89310       -3.61910        4.59280
H          2.41960       -2.90100        3.99410
H          0.70380       -5.23850        2.83520
H          2.24750       -5.40570        3.74320
H          2.23900       -4.73880        2.08860
