20
TSA8_9_OH_NO2_CH2F
C          3.08450       -1.00240        1.17460
C          1.74400       -0.60960        1.77640
O          3.16120       -0.48770       -0.13280
H          3.85670       -0.52960        1.82900
N          1.39970        0.70260        1.89690
C          3.34380       -2.53480        1.16520
C          2.36880       -3.25660        0.25760
C          1.52780       -4.18890        0.71590
O          0.97040       -1.47410        2.16810
C          4.78130       -2.85920        0.72690
H          3.24100       -2.90220        2.21190
H          2.35280       -3.01410       -0.80130
H          1.51090       -4.46420        1.76580
H          0.84560       -4.68500        0.03330
H          4.04600       -0.04780       -0.22900
O          0.34890        1.00860        2.37540
O          2.22140        1.64960        1.49510
F          5.01880       -2.45840       -0.57680
H          4.95550       -3.95440        0.79640
H          5.50740       -2.35380        1.39890
