20
TSA8_9_OH_NO2_CH2F
C          1.67590       -0.00700        0.12380
C          1.41950       -0.41750        1.39130
O          1.87250       -0.86480       -0.89650
H          1.71610        1.05470       -0.10160
N          1.19260        0.55670        2.41080
C          3.97760       -3.88370        1.44870
C          3.23010       -2.90850        0.91140
C          1.73120       -2.87320        1.07580
O          1.34710       -1.73450        1.76160
C          5.46700       -3.89610        1.28460
H          3.51140       -4.68180        2.01990
H          3.71730       -2.11870        0.34780
H          1.39590       -3.75140        1.66820
H          1.21530       -2.94010        0.09660
H          2.04320       -0.53830       -1.79060
O          0.96170        0.20200        3.52700
O          1.23650        1.84560        2.14430
F          5.79500       -3.97170       -0.05670
H          5.89340       -4.77530        1.81100
H          5.90250       -2.97200        1.72040
