19
TSA8_9_Cl_Me_NH2
C          2.83430        0.49770        1.98600
C          1.34040        0.44520        1.76230
Cl         3.66970        0.13180        0.44530
H          3.08030        1.54990        2.25100
C          0.50890        1.67390        1.99060
C          3.37290       -0.37530        3.15800
C          3.30800       -1.87900        2.93640
C          2.17490       -2.58570        2.94360
O          0.80370       -0.57080        1.35080
N          4.76410        0.00890        3.41970
H          2.79720       -0.12770        4.07790
H          4.23830       -2.42700        2.80820
H          1.21330       -2.12220        3.11840
H          2.21190       -3.66110        2.79890
H          0.60180        1.99570        3.04910
H         -0.56130        1.47600        1.76850
H          0.86520        2.49120        1.32900
H          5.38150       -0.25400        2.61740
H          5.10960       -0.47810        4.27880
