22
TSA8_9_CBr3_CHF2_NO2
C          1.42980       -0.34270       -0.08000
C          1.94830       -1.45840        0.50520
C          2.07040        0.54350       -1.13400
H          0.43710       -0.04100        0.23320
C          3.32370       -2.00860        0.20850
C         -1.18650       -4.11530        2.80630
C         -0.43000       -3.77230        1.74960
C         -0.15350       -2.33800        1.40490
O          1.21580       -2.15230        1.42150
N         -1.43280       -5.47460        3.15470
H         -1.62680       -3.33650        3.42340
H          0.01290       -4.53950        1.12060
H         -0.63120       -1.64950        2.13490
H         -0.57220       -2.13860        0.39390
Br         0.83010        1.96090       -1.60310
Br         3.68050        1.43000       -0.51590
Br         2.43370       -0.43820       -2.76630
F          4.30990       -1.13140        0.60940
F          3.51170       -3.19690        0.89340
H          3.42700       -2.23080       -0.87090
O         -0.94200       -6.36860        2.53270
O         -2.18340       -5.74770        4.19690
