22
TSA8_9_CBr3_CHF2_NO2
C          1.29340       -1.76210        1.28130
C          1.98090       -2.77810        0.32310
C          1.24130       -0.26350        0.78830
H          1.89160       -1.70510        2.22000
C          3.47060       -2.59650        0.05210
C         -0.09770       -2.38240        1.66410
C         -0.50690       -3.56040        0.75150
C         -0.11910       -3.25500       -0.69700
O          1.26240       -2.93780       -0.89340
N         -0.06650       -2.86470        3.03520
H         -0.88630       -1.60550        1.57820
H          0.04580       -4.48260        1.03460
H         -0.74500       -2.41390       -1.05320
H         -0.37810       -4.13890       -1.31500
Br         0.21750        0.84470        2.01800
Br         3.00070        0.56100        0.78560
Br         0.49060        0.02340       -0.98010
F          4.15800       -2.46580        1.24550
F          3.94740       -3.71070       -0.61190
H          3.64760       -1.71110       -0.58690
O          0.70150       -3.71780        3.36060
O         -0.87950       -2.35260        3.93390
