22
TSA8_9_OMe_CN_CHF2
C          2.31990       -0.20750       -1.50160
C          1.99140       -1.60900       -1.00990
O          1.25500        0.61600       -1.03420
H          3.30970        0.04440       -1.04480
C          1.86760       -1.87640        0.39970
C          2.43900       -0.13330       -3.07820
C          1.30750        0.66950       -3.66790
C          0.09430        0.13520       -3.80650
O          1.74460       -2.52030       -1.78460
C          3.78850        0.36230       -3.64000
H          2.39730       -1.14890       -3.52400
H          1.46990        1.70800       -3.94450
H         -0.08580       -0.89940       -3.52950
H         -0.71830        0.73280       -4.19950
C          1.70310        1.77400       -0.37430
H          2.28150        2.43100       -1.05690
H          2.25600        1.52250        0.55580
H          0.80120        2.34520       -0.06280
N          1.74630       -2.08500        1.53320
F          4.03280        1.68480       -3.32350
F          4.83090       -0.42550       -3.18310
H          3.76120        0.26680       -4.75230
