23
TSA8_9_Me_CCl3_CHF2
C          2.51460       -1.66770       -0.36350
C          1.49220       -1.27670        0.69300
C          2.64560       -0.52590       -1.38740
H          3.50010       -1.76880        0.14130
C          1.90080       -1.11500        2.14260
C          2.16450       -3.06150       -0.97990
C          0.86120       -3.04340       -1.75360
C         -0.19410       -3.77580       -1.38400
O          0.32980       -1.08540        0.36430
C          3.27780       -3.63370       -1.87990
H          2.07820       -3.76880       -0.12310
H          0.77720       -2.42270       -2.64050
H         -0.15790       -4.41340       -0.50640
H         -1.10920       -3.73800       -1.96630
H          1.69330       -0.35920       -1.93240
H          3.45410       -0.72550       -2.11620
H          2.91120        0.41700       -0.86330
Cl         2.56670       -2.64730        2.76280
Cl         3.14010        0.15750        2.28860
Cl         0.51640       -0.65720        3.17620
F          3.45120       -2.88910       -3.03230
F          4.47440       -3.69680       -1.18840
H          3.00210       -4.66650       -2.18470
