23
TSA8_9_Me_CCl3_CHF2
C          1.98040       -0.11350        0.03370
C          1.56190       -1.09690        0.89070
C          1.82390        0.02670       -1.45780
H          2.50940        0.73770        0.43910
C          1.82770       -0.98460        2.38980
C          2.08420       -4.63570       -1.56510
C          1.86710       -3.33590       -1.31290
C          0.59920       -2.85640       -0.64900
O          0.88360       -2.23950        0.55120
C          3.35080       -5.10000       -2.21970
H          1.33870       -5.37850       -1.29620
H          2.62730       -2.61340       -1.59070
H         -0.05300       -3.72750       -0.42540
H         -0.01410       -2.20340       -1.29570
H          1.28990       -0.76650       -1.98320
H          2.83280        0.09980       -1.91450
H          1.27840        0.97040       -1.66670
Cl         2.78150       -2.39860        2.90610
Cl         2.70760        0.47470        2.94700
Cl         0.27090       -1.01750        3.25610
F          3.48020       -4.51790       -3.46740
F          4.43940       -4.76010       -1.43650
H          3.32440       -6.20340       -2.33840
