23
TSA8_9_Me_CCl3_CHF2
C          2.46910       -1.76290       -0.34580
C          1.27850       -1.49950        0.64270
C          2.43820       -0.70250       -1.45790
H          3.44080       -1.64200        0.18150
C          1.71410       -1.17780        2.08370
C          2.37550       -3.22460       -0.85970
C          0.98750       -3.50640       -1.46600
C         -0.11220       -2.77510       -0.67930
O          0.31290       -2.54880        0.64680
C          3.50830       -3.68110       -1.79410
H          2.45200       -3.85960        0.05170
H          0.89220       -3.22980       -2.53840
H         -1.04090       -3.38150       -0.69200
H         -0.37980       -1.80820       -1.16670
H          1.51170       -0.76720       -2.06320
H          3.31360       -0.80590       -2.12880
H          2.49130        0.31180       -1.00870
Cl         2.56500       -2.56290        2.82150
Cl         2.77900        0.25320        2.12350
Cl         0.27860       -0.80590        3.07260
F          3.47030       -3.01850       -3.00780
F          4.73670       -3.47170       -1.19390
H          3.39800       -4.76820       -1.99530
