18
TSA8_9_CHF2_Br_OH
C          1.83800       -1.03480        1.74720
C          1.34120        0.33620        1.34370
C          1.81820       -1.98340        0.53060
H          2.89830       -0.92830        2.06710
Br         2.50200        1.85080        1.46680
C          1.04820       -1.57460        2.97120
C         -0.42120       -1.79000        2.67810
C         -1.37570       -1.12360        3.33460
O          0.20420        0.49390        0.92680
O          1.61360       -2.78620        3.39890
H          1.17470       -0.81720        3.78250
H         -0.71420       -2.50860        1.91920
H         -1.12840       -0.39750        4.10290
H         -2.42010       -1.30320        3.10190
F          2.58620       -1.45080       -0.49060
F          2.34000       -3.21960        0.86710
H          0.78470       -2.12260        0.15140
H          1.31620       -2.92870        4.33580
