18
TSA8_9_CHF2_Br_OH
C          1.82200       -0.06190        0.00230
C          1.08960        0.11000        1.11650
C          2.27310       -1.39120       -0.55010
H          2.11400        0.81920       -0.56110
Br         0.62000        1.91140        1.61360
C         -0.02780       -2.43270        4.85160
C         -0.32580       -2.21880        3.56110
C         -0.17480       -0.86410        2.93220
O          0.69420       -0.95150        1.86630
O         -0.16610       -3.65530        5.41060
H          0.32960       -1.61770        5.47380
H         -0.68740       -3.03910        2.94670
H          0.20920       -0.13010        3.67450
H         -1.16950       -0.52410        2.57130
F          3.65210       -1.40940       -0.62190
F          1.84890       -2.46800        0.20770
H          1.86060       -1.50370       -1.57570
H         -0.47830       -4.42240        4.91010
