25
TSA8_9_CH2F_NH2_Et
C          2.91770        1.36630       -0.44280
C          1.59630        1.09330       -1.14770
C          2.87500        0.60130        0.90270
H          3.72660        0.93520       -1.07280
N          1.57030        0.43510       -2.33140
C          3.14550        2.91770       -0.37500
C          2.29790        3.58030        0.69280
C          1.32930        4.45170        0.39570
O          0.54610        1.46930       -0.64640
C          4.61790        3.41180       -0.30100
H          2.83260        3.29880       -1.37610
H          2.48210        3.34640        1.73690
H          1.10820        4.71970       -0.63240
H          0.74760        4.90510        1.19190
F          4.05430        0.65450        1.60340
H          2.66920       -0.47260        0.70130
H          2.05720        0.97900        1.55200
H          0.67310        0.25200       -2.80600
H          2.43840        0.10660       -2.77710
C          5.41380        3.15850        0.97680
H          4.58870        4.51650       -0.43610
H          5.18890        2.99360       -1.15870
H          4.88220        3.55160        1.86750
H          6.38840        3.68540        0.89740
H          5.66280        2.09300        1.09450
