20
TSA8_9_CCl3_Br_CBr3
C          1.81770       -0.05570       -0.02620
C          1.05530       -1.16550        0.02860
C          2.29860        0.68150       -1.26230
H          2.12080        0.38000        0.92160
Br         0.59040       -1.83970        1.77320
C         -0.31890       -4.57180       -2.85810
C         -0.49830       -3.28430       -2.51960
C         -0.31000       -2.80570       -1.10910
O          0.62240       -1.79060       -1.09490
C         -0.50540       -5.06090       -4.27030
H         -0.03580       -5.28920       -2.09220
H         -0.79460       -2.56010       -3.27410
H          0.02180       -3.63990       -0.45230
H         -1.27970       -2.41490       -0.73380
Cl         1.80910        0.00230       -2.84230
Cl         1.68220        2.34930       -1.18310
Cl         4.07640        0.74080       -1.22680
Br        -0.21020       -6.97530       -4.34860
Br        -2.30810       -4.70160       -4.89200
Br         0.76520       -4.20080       -5.45630
