19
TSA8_9_OH_CHF2_OH
C          2.97510        0.94180       -0.69100
C          1.46190        1.03180       -1.08810
O          3.09100        0.81810        0.70310
H          3.46770        0.06200       -1.16760
C          1.16920        0.27860       -2.38820
C          3.67480        2.23250       -1.14650
C          3.00920        3.47060       -0.51220
C          1.52160        3.20550       -0.22580
O          0.97110        2.36940       -1.21930
O          5.05890        2.21110       -0.90680
H          3.52720        2.30820       -2.24470
H          3.47660        3.77670        0.44890
H          0.97560        4.17060       -0.18810
H          1.38320        2.73720        0.77640
H          2.78410       -0.09790        0.93180
F         -0.19010        0.30360       -2.64020
F          1.83750        0.85540       -3.45300
H          1.48650       -0.78060       -2.28830
H          5.19260        2.14340        0.07440
