23
TSA8_9_CF3_CHF2_CCl3
C          2.45980       -1.65650       -1.27140
C          1.30320       -1.79510       -0.22540
C          2.53210       -0.18210       -1.72590
H          3.42850       -1.88030       -0.77190
C          1.79450       -1.91430        1.21690
C          2.25430       -2.73500       -2.38930
C          0.80030       -2.73690       -2.91120
C         -0.20400       -2.50860       -1.77140
O          0.38800       -2.83480       -0.53210
C          3.29160       -2.82410       -3.54460
H          2.36180       -3.69460       -1.83210
H          0.59020       -2.01430       -3.72760
H         -1.10680       -3.12890       -1.94550
H         -0.56350       -1.45110       -1.76710
F          3.66070        0.04210       -2.48820
F          1.40840        0.17320       -2.44910
F          2.62030        0.64260       -0.61740
F          0.71300       -1.90090        2.07800
F          2.49400       -3.09630        1.38410
H          2.45700       -1.05930        1.46510
Cl         3.04270       -4.34710       -4.44500
Cl         3.15400       -1.50260       -4.74120
Cl         4.95910       -2.86330       -2.90910
