22
TSA8_9_CF3_CHF2_NO2
C          1.91940       -0.13490        0.04300
C          1.50480       -1.29010        0.65080
C          1.95500        0.34850       -1.39130
H          2.30140        0.63890        0.70430
C          1.60140       -1.36200        2.15470
C          3.36510       -3.92400       -0.74540
C          2.56350       -3.18550       -1.53510
C          1.11610       -2.98920       -1.17380
O          1.01110       -2.43480        0.08470
N          4.74270       -4.13330       -1.03200
H          2.95000       -4.37760        0.15180
H          2.94910       -2.71980       -2.43670
H          0.62930       -3.98690       -1.14710
H          0.53800       -2.42520       -1.92050
F          3.26670        0.61360       -1.73480
F          1.43270       -0.50060       -2.32540
F          1.23950        1.52990       -1.46150
F          0.34540       -1.58590        2.68600
F          2.43170       -2.41190        2.50260
H          2.01080       -0.43510        2.60980
O          5.25160       -3.65070       -1.99940
O          5.47060       -4.86010       -0.21330
