22
TSA8_9_CF3_CHF2_NO2
C          2.72600       -1.41320       -0.07000
C          1.28220       -1.63260        0.50370
C          2.68670       -0.27760       -1.12100
H          3.40190       -1.05580        0.73950
C          1.17200       -1.24400        1.97810
C          3.27060       -2.78890       -0.54990
C          2.28990       -3.49270       -1.50420
C          0.83660       -3.25640       -1.06030
O          0.79190       -2.95680        0.31860
N          4.61460       -2.75160       -1.09770
H          3.29640       -3.41460        0.37240
H          2.38970       -3.19860       -2.57090
H          0.23310       -4.16070       -1.28050
H          0.36390       -2.43470       -1.64710
F          3.96300        0.06430       -1.52390
F          1.94450       -0.63300       -2.23100
F          2.11640        0.85000       -0.55600
F         -0.14220       -1.35660        2.39190
F          1.96420       -2.07590        2.75000
H          1.49990       -0.19270        2.11850
O          4.83110       -2.23940       -2.15420
O          5.58990       -3.37620       -0.47400
