21
TSA8_9_NH2_NH2_CF3
C          2.47240       -1.17540       -2.27180
C          1.18100       -0.49280       -1.69790
N          3.68520       -0.51700       -1.77190
H          2.52000       -2.23310       -1.92590
N          0.25280       -1.49350       -1.17800
C          2.39760       -1.15560       -3.81200
C          2.23320        0.29090       -4.32220
C          1.37850        1.13160       -3.35700
O          0.47950        0.30900       -2.64930
C          3.55750       -1.88570       -4.50930
H          1.46180       -1.69760       -4.07890
H          3.19350        0.82800       -4.48250
H          0.82350        1.89640       -3.93790
H          2.00320        1.70730       -2.63860
H          3.70790       -0.58480       -0.72830
H          3.72730        0.49100       -2.03340
H         -0.01030       -2.15730       -1.94250
H          0.71460       -2.02580       -0.40610
F          3.61930       -3.19710       -4.07210
F          3.34970       -1.88810       -5.87770
F          4.76490       -1.26540       -4.24270
