20
TSA8_9_CH2F_CF3_I
C          2.73950        0.21740        1.12960
C          1.31100        0.68020        1.58860
C          2.61530       -1.04220        0.24950
H          3.20790        0.99690        0.48820
C          1.05080        2.15610        1.27040
C          3.61170        0.02130        2.38730
C          2.96330       -0.97610        3.35740
C          1.43100       -0.84490        3.33790
O          1.05920        0.46710        2.97900
I          5.67410       -0.45560        2.03780
H          3.63360        1.00520        2.90530
H          3.22510       -2.03520        3.14680
H          1.02960       -1.09990        4.34000
H          0.96350       -1.57380        2.63870
F          3.84300       -1.41590       -0.26290
H          1.94700       -0.82080       -0.61030
H          2.18620       -1.90210        0.79950
F         -0.23840        2.48760        1.64540
F          1.94170        2.95960        1.95940
F          1.18650        2.38110       -0.08800
