20
TSA8_9_CCl3_NH2_CN
C          1.73510        1.65060        0.85360
C          1.83910        2.22150       -0.57200
C          2.31030        0.21210        1.21700
H          0.67490        1.39630        0.78480
N          2.65240        1.75940       -1.55120
C          1.71320        2.78780        1.96490
C          0.72980        2.42280        3.05160
C         -0.56630        2.25490        2.74810
O          1.06760        3.12670       -0.86020
C          3.01830        3.21070        2.52550
H          1.30600        3.72440        1.50680
H          1.06400        2.27270        4.06680
H         -0.93150        2.41560        1.73250
H         -1.27840        1.95550        3.49970
Cl         2.30240       -0.13500        2.97170
Cl         1.24390       -1.04030        0.49450
Cl         3.97690       -0.14610        0.70080
H          2.58780        2.18000       -2.49190
H          3.31920        0.99820       -1.42550
N          3.99600        3.59750        3.00470
