24
TSA8_9_Me_CN_Et
C          1.75570        0.07940        0.07010
C          1.48450        0.54070        1.32400
C          1.83270       -1.32300       -0.47960
H          1.96940        0.82860       -0.69040
C          1.53450        1.97100        1.50670
C          1.98230       -3.64050        3.12910
C          2.06550       -2.31390        2.95810
C          0.84700       -1.50610        2.61230
O          1.18630       -0.18110        2.44710
C          3.17570       -4.48080        3.49990
H          1.02370       -4.13640        3.00270
H          3.02100       -1.80930        3.07580
H          0.13320       -1.57750        3.46030
H          0.28510       -1.88600        1.74170
H          1.62140       -2.15120        0.20530
H          2.86510       -1.48210       -0.84750
H          1.14420       -1.41040       -1.34970
N          1.58280        3.11860        1.65090
C          4.28650       -4.40610        2.45410
H          2.84650       -5.53830        3.59000
H          3.57100       -4.15110        4.48480
H          3.90570       -4.73180        1.46320
H          5.12020       -5.07520        2.75510
H          4.68370       -3.37240        2.37180
