17
TSA8_9_H_Cl_Me
C          3.27640        0.68690        1.40640
C          1.74080        0.93260        1.40390
H          3.49360       -0.34300        1.04720
H          3.77900        1.39450        0.71170
Cl         1.42020        2.68520        1.30370
C          3.77870        0.81870        2.84680
C          3.07710       -0.23710        3.72870
C          1.71900       -0.65930        3.13610
O          1.05430        0.44350        2.55930
C          5.30110        0.70210        2.94520
H          3.48530        1.82760        3.21190
H          3.67120       -1.16990        3.84920
H          1.09410       -1.10660        3.93630
H          1.85110       -1.45350        2.36480
H          5.78330        1.49400        2.33300
H          5.64230       -0.29010        2.57920
H          5.62460        0.82840        4.00030
