17
TSA8_9_OH_NH2_I
C          1.32340       -1.40690       -1.06820
C          0.97150       -1.31020        0.43090
O          0.73320       -0.33070       -1.75070
H          2.42790       -1.38030       -1.21780
N          1.72350       -2.26380        1.24520
C          0.78280       -2.73190       -1.62490
C         -0.71030       -2.84000       -1.31710
C         -0.91940       -2.67590        0.19300
O         -0.42940       -1.42460        0.65270
I          1.12840       -2.90580       -3.73150
H          1.30820       -3.57980       -1.13290
H         -1.27220       -2.04510       -1.85430
H         -0.45590       -3.51770        0.75380
H         -2.00870       -2.72380        0.39940
H          1.31600        0.45850       -1.59760
H          1.42500       -2.15160        2.24030
H          2.73590       -2.00960        1.19510
