19
TSA8_9_NO2_CF3_F
C          2.12470        0.59720       -1.51880
C          1.36330       -0.54840       -0.88280
N          2.20800        1.70610       -0.58530
H          3.15640        0.25030       -1.76170
C          2.03400       -1.87560       -0.65610
C          1.45830        1.06120       -2.82990
C          1.40660       -0.05560       -3.84140
C          0.25110       -0.50380       -4.34150
O          0.19660       -0.39420       -0.55000
F          2.18950        2.10470       -3.37050
H          0.43350        1.43540       -2.60960
H          2.33640       -0.50900       -4.17260
H          0.25110       -1.30990       -5.06770
H         -0.69840       -0.07610       -4.03460
O          3.27250        2.08980       -0.20450
O          1.11490        2.30240       -0.15610
F          1.15630       -2.77080       -0.06950
F          2.46140       -2.39430       -1.86430
F          3.12390       -1.70540        0.17730
