19
TSA8_9_NO2_CF3_F
C          2.12370        0.10330       -0.24630
C          1.73880       -0.97480       -1.00870
N          1.83630        1.49750       -0.39550
H          2.74280       -0.11540        0.61850
C          2.17650       -2.36340       -0.57930
C          1.38400        1.62240       -4.62690
C          1.63160        0.70110       -3.69290
C          0.50950       -0.06150       -3.04270
O          0.99500       -1.00200       -2.15990
F          2.41040        2.29940       -5.20400
H          0.36560        1.84000       -4.93530
H          2.65940        0.50170       -3.40260
H         -0.03480       -0.60740       -3.84200
H         -0.24770        0.58230       -2.55960
O          2.32350        2.26160        0.38130
O          0.98460        1.96650       -1.27050
F          1.05340       -3.14230       -0.37020
F          2.92700       -2.92940       -1.59350
F          2.93470       -2.37630        0.58000
