19
TSA8_9_NO2_CF3_F
C          2.24530        0.51930       -1.70450
C          1.30030       -0.67080       -1.38870
N          2.47870        1.33890       -0.53020
H          3.21150        0.11220       -2.08430
C          1.83040       -1.59550       -0.28430
C          1.59680        1.37090       -2.81020
C          1.22790        0.48730       -3.99980
C          0.36310       -0.67240       -3.49430
O          1.08910       -1.44140       -2.55790
F          2.45740        2.37600       -3.21550
H          0.66190        1.83510       -2.42560
H          2.14910        0.07730       -4.46970
H          0.10190       -1.31980       -4.35690
H         -0.59700       -0.30810       -3.06050
O          3.58800        1.49090       -0.11600
O          1.47110        1.92010        0.08710
F          0.93080       -2.62630       -0.08390
F          3.05130       -2.13200       -0.65430
F          1.97610       -0.90900        0.90660
