14
TSA8_9_H_Cl_Cl
C          2.25450       -0.15410        0.20420
C          1.34800       -1.12630        0.10270
H          2.77810        0.20380       -0.67680
H          2.48080        0.29430        1.16650
Cl         0.52750       -1.67160        1.57000
C         -0.91500       -2.66750       -3.66040
C         -0.78300       -2.08160       -2.46550
C          0.14370       -2.62070       -1.41450
O          1.09570       -1.66290       -1.12060
Cl        -2.00930       -1.99990       -4.85980
H         -0.35020       -3.56100       -3.91030
H         -1.35970       -1.18910       -2.24220
H          0.66320       -3.53480       -1.77380
H         -0.46200       -2.90110       -0.52900
