18
TSA8_9_CN_I_CF3
C          2.71200       -0.84220       -1.28450
C          2.04420       -1.51590       -0.04170
C          1.98110        0.39760       -1.63650
H          3.68610       -0.50350       -0.90740
I          1.91500       -0.67930        1.89150
C          2.84780       -1.71110       -2.65040
C          2.04720       -2.95500       -2.55060
C          0.72830       -2.87620       -2.70160
O          1.56430       -2.63440       -0.06360
C          4.13970       -2.03170       -3.47790
H          2.34910       -1.10750       -3.44140
H          2.53710       -3.88310       -2.26170
H          0.11760       -3.74830       -2.55190
H          0.27290       -1.91440       -2.93310
N          1.40120        1.34110       -1.97700
F          5.08010       -2.75500       -2.76880
F          3.76150       -2.80620       -4.57540
F          4.72550       -0.88770       -3.99100
