18
TSA8_9_CN_I_CF3
C          1.68020       -0.07090        0.05520
C          1.47360       -1.39330        0.28990
C          1.83200        0.60030       -1.21510
H          1.73530        0.57980        0.91900
I          1.39140       -1.97970        2.31890
C          2.93500       -2.39230       -3.83340
C          2.65420       -2.61960       -2.54570
C          1.29170       -2.32690       -2.00130
O          1.34230       -2.40820       -0.62570
C          4.29650       -2.62030       -4.42540
H          2.15880       -1.99680       -4.48200
H          3.41670       -2.98990       -1.86610
H          0.55390       -3.06010       -2.39680
H          0.92910       -1.34310       -2.33590
N          1.95740        1.18210       -2.19900
F          5.20070       -3.09540       -3.48950
F          4.19110       -3.53580       -5.45330
F          4.76790       -1.42320       -4.93010
