18
TSA8_9_CN_I_CF3
C          2.75470       -0.88410       -1.45120
C          2.01740       -1.70280       -0.33360
C          2.08610        0.41040       -1.71370
H          3.77940       -0.68210       -1.07410
I          2.03540       -1.02770        1.70100
C          2.78140       -1.71910       -2.79280
C          2.06850       -3.05080       -2.59510
C          0.69230       -2.71550       -2.00810
O          0.73790       -2.21180       -0.68020
C          4.12200       -1.93830       -3.52220
H          2.15610       -1.19500       -3.54950
H          2.63230       -3.72750       -1.90680
H          0.06910       -3.62810       -2.05730
H          0.20070       -1.93970       -2.63700
N          1.58580        1.43030       -1.94130
F          5.05330       -2.56480       -2.71550
F          3.88980       -2.74380       -4.62990
F          4.63520       -0.73680       -3.97400
