20
TSA8_9_CHF2_Br_CH2F
C          1.87860       -0.06250       -0.04670
C          1.13150       -1.06910        0.44080
C          2.31360        0.08740       -1.48370
H          2.19480        0.71940        0.63750
Br         0.68650       -1.03210        2.31430
C         -0.10820       -5.33750       -0.97060
C         -0.37880       -4.02920       -1.09740
C         -0.16710       -3.06720        0.03540
O          0.70520       -2.07780       -0.36360
C         -0.32280       -6.29030       -2.10670
H          0.27340       -5.72940       -0.03170
H         -0.76490       -3.64530       -2.03750
H          0.23960       -3.59370        0.92710
H         -1.14530       -2.61130        0.30190
F          3.69370        0.12520       -1.53770
F          1.86190       -0.93570       -2.29800
H          1.91460        1.04640       -1.87470
F         -1.65340       -6.28610       -2.48470
H         -0.04120       -7.31660       -1.79020
H          0.30840       -5.99640       -2.97160
