20
TSA8_9_CHF2_Br_CH2F
C          1.50780       -2.50510       -0.62260
C          1.07410       -1.66990        0.59990
C          1.60880       -1.56940       -1.84930
H          2.52960       -2.90400       -0.43960
Br         1.44700       -2.50180        2.32680
C          0.50810       -3.68830       -0.76840
C         -0.92780       -3.15190       -0.81480
C         -1.17660       -2.27310        0.41680
O         -0.25880       -1.19210        0.48620
C          0.78770       -4.61520       -1.95800
H          0.60140       -4.31520        0.14680
H         -1.10170       -2.56300       -1.74000
H         -1.15060       -2.88110        1.34690
H         -2.20410       -1.86020        0.34550
F          2.47550       -0.52830       -1.56400
F          2.11010       -2.24180       -2.94760
H          0.62430       -1.13080       -2.10990
F         -0.07830       -5.69410       -1.92560
H          1.82860       -4.99850       -1.90030
H          0.64380       -4.09060       -2.92370
