17
TSA8_9_I_I_Me
C          2.13030        0.14780        0.43440
C          1.55580       -0.99580        0.83810
I          3.45700        0.32560       -1.21260
H          1.90530        1.07060        0.96160
I          1.94400       -2.83110       -0.18920
C          1.47370       -3.05500        3.89920
C          0.61490       -3.13420        2.87410
C         -0.12580       -1.93220        2.35760
O          0.71240       -0.93100        1.90500
C          2.18870       -4.26960        4.41550
H          1.65720       -2.10120        4.38170
H          0.42690       -4.09260        2.39560
H         -0.74480       -1.52260        3.18340
H         -0.81210       -2.23580        1.53730
H          3.28380       -4.11520        4.33130
H          1.91500       -5.18600        3.84820
H          1.92470       -4.42480        5.48250
