22
TSA8_9_NO2_CH2F_CCl3
C          2.38730       -2.05360       -0.19170
C          1.56780       -1.27440        0.81780
N          2.54190       -1.26980       -1.40780
H          3.39090       -2.19770        0.26640
C          2.18980       -0.86220        2.12270
C          1.78590       -3.48000       -0.44120
C          0.42800       -3.42180       -1.12280
C         -0.69060       -3.83950       -0.52240
O          0.40740       -0.97640        0.57590
C          2.73720       -4.43440       -1.22560
H          1.66560       -3.94010        0.56690
H          0.35150       -3.04200       -2.13610
H         -0.67410       -4.23410        0.48780
H         -1.63850       -3.78670       -1.04960
O          3.62980       -0.91450       -1.75100
O          1.49220       -0.87050       -2.09420
F          1.28350       -0.16890        2.90570
H          3.06720       -0.21130        1.92420
H          2.52660       -1.76490        2.67430
Cl         2.01820       -6.06770       -1.32820
Cl         3.06670       -3.88650       -2.89440
Cl         4.30100       -4.62600       -0.38150
