25
TSA8_9_NO2_Et_CCl3
C          3.14140        2.36350       -0.25040
C          1.64480        2.62950       -0.56060
N          3.34460        0.97870        0.14950
H          3.71880        2.55970       -1.17690
C          1.06740        1.81070       -1.72550
C          3.63510        3.34310        0.86960
C          2.46480        4.21060        1.38160
C          1.25370        3.30260        1.67570
O          0.85170        2.45340        0.59990
C          4.83380        4.22230        0.41880
H          3.98150        2.74270        1.74090
H          2.16020        4.94960        0.60930
H          0.39800        3.94150        1.97630
H          1.51780        2.65380        2.53760
O          4.05230        0.26730       -0.49570
O          2.75380        0.49640        1.22390
C          1.74790        2.11990       -3.05980
H         -0.00590        2.07910       -1.82890
H          1.13640        0.72360       -1.50780
H          1.67780        3.20610       -3.28390
H          1.24260        1.55670       -3.87210
H          2.81350        1.81390       -3.05410
Cl         4.41680        5.25720       -0.98190
Cl         5.37030        5.28350        1.75080
Cl         6.22500        3.20040       -0.03880
