19
TSA8_9_CN_CN_CHF2
C          2.84540        0.58600       -1.41120
C          1.74940       -0.40170       -1.88230
C          2.30470        1.28290       -0.20230
H          3.69810       -0.03790       -1.06960
C          1.79690       -1.81640       -1.58910
C          3.21200        1.60180       -2.59770
C          2.36090        2.81620       -2.36930
C          1.10910        2.86920       -2.77810
O          0.73920       -0.00300       -2.43760
C          4.65260        2.14770       -2.93180
H          2.97470        1.06460       -3.54170
H          2.71230        3.56240       -1.65520
H          0.70660        2.09830       -3.41460
H          0.47430        3.66150       -2.41070
N          1.81630        1.78120        0.72710
N          1.82190       -2.94540       -1.33210
F          5.12330        3.10880       -2.04750
F          5.60680        1.15390       -3.08060
H          4.58380        2.66500       -3.92950
