19
TSA8_9_CN_CN_CHF2
C          1.68050       -0.04720       -0.05240
C          1.51320       -0.45140       -1.34510
C          1.83830        1.30750        0.41760
H          1.61570       -0.79330        0.74090
C          1.46530       -1.87170       -1.56980
C          3.56560        2.47490       -3.69510
C          2.92060        2.03090       -2.60580
C          1.45380        1.69620       -2.61840
O          1.32710        0.33570       -2.44770
C          5.03830        2.79290       -3.67130
H          3.03020        2.60800       -4.62870
H          3.47940        1.89080       -1.68600
H          0.97500        1.97410       -3.59790
H          0.89990        2.25890       -1.83840
N          1.96660        2.38100        0.82720
N          1.44010       -3.02290       -1.67170
F          5.31360        3.75360       -2.71370
F          5.76860        1.65140       -3.39750
H          5.35620        3.18210       -4.66290
