20
TSA8_9_Cl_Me_CBr3
C          2.89900        1.60310        0.78570
C          1.61720        2.32170        0.43770
Cl         2.52200       -0.12560        1.03650
H          3.55920        1.60020       -0.10510
C          1.42280        2.90620       -0.93070
C          3.69150        2.22680        1.98960
C          2.87080        2.32060        3.27370
C          2.41010        1.26130        3.94740
O          0.71740        2.40520        1.26020
C          4.32510        3.61990        1.66230
H          4.55830        1.55790        2.18830
H          2.66040        3.29860        3.69690
H          1.84290        1.41130        4.86050
H          2.59620        0.24600        3.62750
H          2.20340        3.66730       -1.13380
H          0.42390        3.38530       -1.01360
H          1.49690        2.10110       -1.69090
Br         5.47550        4.18170        3.12910
Br         5.47910        3.54350        0.09850
Br         3.03250        5.05100        1.38820
