23
TSA8_9_F_Et_CH2F
C          3.00860        2.49800        0.14990
C          1.51370        2.06110        0.00590
F          3.73100        1.48320        0.75750
H          3.46280        2.66520       -0.85130
C          0.88450        2.69120       -1.24800
C          3.06180        3.76530        1.01570
C          2.46080        3.46980        2.40690
C          1.42750        2.33100        2.34030
O          0.69790        2.39390        1.13600
C          4.46820        4.36710        1.12250
H          2.41410        4.52280        0.52270
H          3.21850        3.16930        3.16340
H          0.74120        2.40760        3.20890
H          1.91890        1.33540        2.42690
C         -0.54690        2.20610       -1.46280
H          1.48260        2.40280       -2.13960
H          0.88340        3.79900       -1.16400
H         -0.56710        1.10020       -1.56620
H         -0.95660        2.65960       -2.39000
H         -1.19460        2.50610       -0.61200
F          5.34500        3.48160        1.72500
H          4.43230        5.30250        1.72090
H          4.84900        4.61650        0.10930
