17
TSA8_9_CF3_F_H
C          1.72990       -0.24540        1.74450
C          0.82050        0.82490        1.11240
C          1.59650       -1.59170        0.99880
H          2.79190        0.06520        1.62950
F          1.15380        2.10450        1.53410
C          1.41410       -0.32800        3.25240
C         -0.08660       -0.50030        3.49310
C         -0.84230        0.59580        2.72980
O         -0.55440        0.55080        1.34020
H          1.99350       -1.13610        3.74730
H          1.71430        0.63310        3.72500
H         -0.43090       -1.50060        3.16340
H         -0.61690        1.60110        3.15140
H         -1.93090        0.43450        2.87260
F          2.43060       -2.53160        1.57770
F          0.30170       -2.07530        1.00940
F          1.98170       -1.42160       -0.31950
