23
TSA8_9_CBr3_CHF2_CHF2
C          1.03260       -1.28960        1.73580
C          2.41970       -1.93230        1.83170
C          0.92060       -0.25420        0.56570
H          0.93480       -0.66400        2.65310
C          3.02780       -2.83430        0.79170
C         -0.16070       -2.30710        1.84060
C         -0.29260       -3.26000        0.67170
C         -1.36790       -3.25420       -0.12500
O          3.09450       -1.68940        2.82230
C         -0.10530       -3.12000        3.15010
H         -1.08890       -1.70020        1.90920
H          0.48510       -3.98750        0.47650
H         -2.18220       -2.55410        0.03210
H         -1.43640       -3.95820       -0.94780
Br        -0.73810        0.75380        0.68620
Br         2.34620        1.06120        0.70770
Br         1.00190       -0.97660       -1.23820
F          4.20190       -2.26950        0.32870
F          3.31200       -4.06310        1.35810
H          2.36700       -2.99810       -0.07220
F         -1.25290       -3.88300        3.28140
F          0.99160       -3.96370        3.17770
H         -0.04930       -2.43180        4.02000
