23
TSA8_9_CBr3_CHF2_CHF2
C          1.41190       -0.25150        0.01960
C          1.89190       -1.34640        0.67460
C          2.05270        0.49810       -1.13340
H          0.45270        0.12800        0.35350
C          3.21010       -2.01490        0.37160
C         -1.29160       -3.64540        3.28450
C         -0.37270       -3.53970        2.31480
C         -0.17230       -2.27090        1.54090
O          1.15080       -1.90250        1.66730
C         -1.45000       -4.91280        4.07110
H         -1.93770       -2.80370        3.51900
H          0.26070       -4.39100        2.07670
H         -0.83520       -1.45740        1.91410
H         -0.41700       -2.47000        0.47330
Br         0.88450        1.95520       -1.66490
Br         3.74810        1.31650       -0.67060
Br         2.26520       -0.63910       -2.68990
F          4.26900       -1.17960        0.65410
F          3.34630       -3.15110        1.15030
H          3.24430       -2.33220       -0.68680
F         -1.73760       -5.96790        3.22490
F         -0.28430       -5.18200        4.76370
H         -2.28030       -4.79560        4.79880
