22
TSA8_9_F_NO2_Et
C          1.68640        0.11000        0.01820
C          1.43430        1.29420        0.62660
F          1.83960       -1.05730        0.69410
H          1.75800        0.05390       -1.06240
N          1.25670        2.46790       -0.16590
C          3.86390        0.61940        4.11720
C          3.13840        0.31290        3.03030
C          1.64640        0.52830        2.98320
O          1.32300        1.42860        1.98450
C          5.35630        0.42460        4.15780
H          3.37780        1.03420        4.99580
H          3.63550       -0.09230        2.15540
H          1.29390        0.95100        3.94820
H          1.10520       -0.42900        2.84080
O          1.03770        3.51440        0.36620
O          1.33640        2.42200       -1.47950
C          5.74830       -1.04310        3.99820
H          5.73640        0.78590        5.13730
H          5.82970        1.02780        3.35330
H          5.29390       -1.65200        4.80860
H          6.85310       -1.13820        4.05680
H          5.41630       -1.43740        3.01520
