19
TSA8_9_H_NO2_CBr3
C          2.51370       -2.26890        0.80320
C          1.35560       -2.46240        1.76410
H          2.16730       -1.46300        0.11800
H          3.40520       -1.88560        1.34280
N          0.96500       -1.44100        2.57440
C          2.92050       -3.50410       -0.05170
C          3.71600       -2.98830       -1.23800
C          3.29150       -3.13770       -2.49730
O          0.73720       -3.51710        1.78430
C          3.77310       -4.58220        0.70130
H          1.99110       -3.98090       -0.43600
H          4.65740       -2.47400       -1.06740
H          2.35570       -3.64060       -2.72080
H          3.88620       -2.75180       -3.31880
O          0.03930       -1.57920        3.31660
O          1.60100       -0.28830        2.54970
Br         4.19270       -6.04910       -0.50610
Br         5.46470       -3.87030        1.35670
Br         2.89820       -5.41050        2.22190
