22
TSA8_9_CN_OMe_CCl3
C          2.78400       -0.70980       -1.49370
C          1.63240       -1.63850       -1.11430
C          2.35570        0.65090       -1.04020
H          3.64730       -1.00500       -0.86590
O          1.82810       -2.56060       -0.15280
C          3.08490       -0.81670       -3.08190
C          2.41080        0.38660       -3.66010
C          1.11250        0.36170       -3.89950
O          0.54180       -1.57170       -1.66500
C          4.48360       -0.97370       -3.80910
H          2.59060       -1.75970       -3.40620
H          2.93450        1.34150       -3.62270
H          0.56840       -0.57060       -3.83470
H          0.60290        1.29420       -4.07490
N          2.03150        1.72780       -0.75360
C          1.99790       -3.88140       -0.47620
H          2.14050       -4.46500        0.45460
H          2.90850       -3.97140       -1.10620
H          1.11590       -4.26780       -1.03110
Cl         4.17190       -1.24070       -5.56530
Cl         5.56280        0.44700       -3.71840
Cl         5.40980       -2.40570       -3.29050
