22
TSA8_9_CN_OMe_CCl3
C          2.89170       -0.51190       -1.42140
C          1.47380       -1.14070       -1.20500
C          2.60720        0.94250       -1.11700
H          3.55620       -0.89530       -0.63050
O          1.40010       -2.16120       -0.22140
C          3.23690       -0.85280       -2.96010
C          2.24840       -0.02720       -3.75750
C          0.81470       -0.31720       -3.29360
O          0.73110       -1.41790       -2.38930
C          4.59500       -0.87350       -3.75840
H          2.96230       -1.91420       -3.09330
H          2.52730        1.05400       -3.66370
H          0.28110       -0.58770       -4.22260
H          0.34250        0.59070       -2.86380
N          2.38660        2.03330       -0.85250
C          1.96180       -3.37980       -0.66570
H          2.32900       -3.93750        0.22300
H          2.85240       -3.25400       -1.31370
H          1.19080       -4.00850       -1.15830
Cl         4.23270       -1.25500       -5.49100
Cl         5.53100        0.63810       -3.77340
Cl         5.65350       -2.21620       -3.24970
