17
TSA8_9_H_I_CCl3
C          3.32790        1.42890       -0.96270
C          1.78110        1.30530       -1.05770
H          3.66000        1.15060        0.06060
H          3.79950        0.71370       -1.66810
I          1.20650        1.00710       -3.10020
C          3.71710        2.89330       -1.22890
C          3.03910        3.78940       -0.16200
C          1.76950        3.13610        0.41350
O          1.05960        2.44740       -0.59200
C          5.24550        3.13340       -1.31950
H          3.28000        3.16730       -2.21460
H          3.69370        4.02240        0.70540
H          1.12730        3.91990        0.86550
H          2.02350        2.42930        1.23690
Cl         5.58350        4.85380       -1.65830
Cl         6.09050        2.67910        0.18920
Cl         5.95130        2.18490       -2.65780
