17
TSA8_9_I_Cl_CH2F
C          1.78110       -0.13200       -0.08170
C          1.47830       -0.94030       -1.10430
I          2.00320        1.96120       -0.31010
H          1.91160       -0.54420        0.91390
Cl         1.28190       -2.66390       -0.81790
C          2.21960       -2.55420       -4.24640
C          2.94440       -1.60140       -3.64390
C          2.33420       -0.28190       -3.25620
O          1.29880       -0.44810       -2.35460
C          2.83230       -3.86510       -4.63340
H          1.16810       -2.38270       -4.46090
H          3.99660       -1.77190       -3.43190
H          1.94090        0.21280       -4.16870
H          3.11420        0.37500       -2.81570
F          3.86570       -3.65810       -5.52890
H          2.06470       -4.50930       -5.11100
H          3.22280       -4.38120       -3.73080
