19
TSA8_9_NO2_I_CH2F
C          1.63300       -2.35830        0.69940
C          1.31270       -0.97420        1.21640
N          1.71450       -2.32150       -0.75830
H          2.63860       -2.63530        1.08700
I          2.68060        0.04010        2.46400
C          0.63200       -3.40670        1.28500
C         -0.80730       -3.15320        0.87580
C         -1.75340       -2.86170        1.77490
O          0.26960       -0.41850        0.90850
C          1.03490       -4.85030        0.93940
H          0.71310       -3.32520        2.39380
H         -1.09470       -3.21030       -0.16800
H         -1.52310       -2.79320        2.83370
H         -2.77400       -2.68730        1.45080
O          2.51160       -1.60130       -1.28000
O          0.94300       -3.06710       -1.51910
F          0.19970       -5.74250        1.58920
H          2.07580       -5.04200        1.27630
H          0.97940       -5.05210       -0.14810
