19
TSA8_9_NO2_I_CH2F
C          2.00620       -0.10620        0.07010
C          1.23320       -0.71060        0.98960
N          2.36990       -0.70250       -1.17370
H          2.37040        0.89450        0.28550
I          0.80360        0.36820        2.77640
C         -0.15990       -5.09090        1.78250
C         -0.42280       -3.97340        1.08880
C         -0.11400       -2.61080        1.63770
O          0.74700       -1.96130        0.78050
C         -0.47390       -6.44470        1.22230
H          0.28860       -5.03000        2.77040
H         -0.87440       -4.04300        0.10250
H          0.34680       -2.68730        2.64740
H         -1.06290       -2.03790        1.71630
O          3.05650       -0.09230       -1.93470
O          1.95630       -1.90710       -1.50680
F         -1.83020       -6.55130        0.97310
H         -0.17900       -7.22760        1.95220
H          0.08950       -6.60400        0.27880
