19
TSA8_9_NO2_I_CH2F
C          1.68490       -2.41670        0.85520
C          1.17370       -1.09360        1.45630
N          1.85430       -2.23320       -0.58430
H          2.68560       -2.64990        1.28120
I          1.48200       -0.85190        3.57670
C          0.69620       -3.54240        1.27280
C         -0.73650       -3.15550        0.88220
C         -1.05870       -1.77840        1.47650
O         -0.14610       -0.78670        1.03020
C          1.08110       -4.94210        0.76910
H          0.72150       -3.60500        2.38440
H         -0.86640       -3.12400       -0.21830
H         -1.08750       -1.82610        2.58640
H         -2.08070       -1.49100        1.15370
O          2.62330       -1.40840       -0.97730
O          1.19430       -2.95100       -1.46680
F          0.20780       -5.88240        1.28680
H          2.10750       -5.19190        1.11200
H          1.05330       -5.02140       -0.33360
