18
TSA8_9_OH_CF3_H
C          1.89540       -0.16640       -0.25740
C          1.53900       -0.67400       -1.46290
O          2.24260        1.12600       -0.09390
H          1.88540       -0.79780        0.62580
C          1.09840       -2.11290       -1.59090
C          2.65270        1.73180       -5.33760
C          2.89910        0.92970       -4.29770
C          2.28640        1.16330       -2.94790
O          1.52320        0.05890       -2.61470
H          3.11400        1.52930       -6.29860
H          1.99480        2.59030       -5.24340
H          3.56310        0.08040       -4.43030
H          1.63400        2.06280       -2.95770
H          3.12350        1.32500       -2.24090
H          2.48230        1.46640        0.77910
F         -0.18990       -2.14980       -2.09130
F          1.93910       -2.76320       -2.47490
F          1.12190       -2.78830       -0.38190
