26
TSA8_9_CHF2_CH2F_Et
C          2.84040       -1.39160       -0.25330
C          1.49380       -1.52400        0.44050
C          2.80770       -0.08110       -1.08370
H          3.60310       -1.26890        0.54810
C          1.41430       -1.48380        1.93990
C          3.16490       -2.74010       -0.99250
C          2.34190       -2.93900       -2.24970
C          1.42490       -3.90600       -2.35510
O          0.47170       -1.66820       -0.21600
C          4.66210       -3.06870       -1.25460
H          2.88840       -3.53070       -0.25470
H          2.50010       -2.28270       -3.09920
H          1.23040       -4.58980       -1.53520
H          0.85840       -4.01660       -3.27430
F          4.02240        0.24390       -1.63420
F          1.85300       -0.12550       -2.08410
H          2.54100        0.75710       -0.40390
F          0.10610       -1.62540        2.36840
H          1.81080       -0.51380        2.30640
H          2.02340       -2.30930        2.36420
C          5.41410       -2.28060       -2.32620
H          4.69710       -4.13280       -1.58010
H          5.22750       -3.00220       -0.29950
H          4.88640       -2.32010       -3.30120
H          6.41750       -2.73740       -2.46140
H          5.60370       -1.24330       -2.02070
