26
TSA8_9_CHF2_CH2F_Et
C          1.90010       -0.18500        0.09340
C          1.48840       -1.42940        0.49040
C          2.08970        0.48510       -1.25020
H          2.14580        0.51120        0.89110
C          1.39990       -1.69500        1.97260
C          3.64210       -3.66320       -1.26200
C          2.80080       -2.86070       -1.94140
C          1.33340       -2.83380       -1.60400
O          1.14770       -2.51040       -0.27690
C          5.13280       -3.76790       -1.49560
H          3.23570       -4.29110       -0.47330
H          3.15690       -2.22020       -2.73890
H          0.92580       -3.85420       -1.76540
H          0.73280       -2.18230       -2.26120
F          3.41580        0.84880       -1.38780
F          1.71450       -0.22970       -2.35380
H          1.47360        1.40840       -1.25120
F          0.10660       -2.05610        2.30180
H          1.68840       -0.82080        2.59460
H          2.08240       -2.53280        2.22860
C          5.69180       -2.85970       -2.59160
H          5.37030       -4.82150       -1.75430
H          5.64660       -3.51750       -0.54290
H          5.23030       -3.10490       -3.57180
H          6.78850       -3.01240       -2.67240
H          5.50400       -1.79330       -2.34300
