16
TSA8_9_CN_F_OH
C          2.84030       -1.35580        0.76470
C          2.13610       -0.56950        1.83230
C          2.28890       -1.39350       -0.57040
H          3.66970       -0.63830        0.50990
F          1.50510        0.58700        1.51780
C          2.90900       -2.88000        1.22800
C          1.57100       -3.54940        0.87920
C          0.42230       -3.24740        1.49730
O          2.38900       -0.79150        2.98940
O          4.00670       -3.51680        0.59800
H          3.05400       -3.01620        2.32340
H          1.50840       -4.25850        0.03460
H          0.41770       -2.55420        2.32940
H         -0.52480       -3.66710        1.16820
N          1.97730       -1.53020       -1.70690
H          3.74200       -4.42950        0.29480
