21
TSA8_9_OMe_F_CBr3
C          0.29330       -1.01890       -1.35620
C          1.11600       -1.06260       -0.08610
O          1.09830       -0.55140       -2.42530
H         -0.58330       -0.35180       -1.19710
F          0.73330       -0.33080        0.99250
C         -0.26010       -2.43980       -1.68940
C         -1.07460       -2.93780       -0.50590
C         -0.72270       -4.02330        0.19100
O          2.12480       -1.74650       -0.02360
C         -1.13170       -2.50510       -2.98240
H          0.60970       -3.11700       -1.84950
H         -1.96760       -2.39570       -0.20950
H          0.16370       -4.59430       -0.06640
H         -1.32790       -4.34660        1.03150
C          1.36700        0.83120       -2.29520
H          1.73360        1.20720       -3.27250
H          2.16960        1.00260       -1.54670
H          0.45850        1.42700       -2.05490
Br        -1.78130       -4.31820       -3.26620
Br        -2.68360       -1.33170       -2.90370
Br        -0.13440       -2.06740       -4.59380
