21
TSA8_9_OMe_F_CBr3
C          1.49330        0.19150        0.02440
C          1.03440       -0.98890        0.44270
O          1.71510        0.39910       -1.29400
H          1.65350        0.99030        0.74450
F          0.76620       -1.17890        1.76320
C         -1.09420       -4.12720       -2.23790
C         -0.98650       -3.06480       -1.42520
C         -0.03610       -3.03880       -0.26460
O          0.82050       -1.97680       -0.45940
C         -2.01430       -4.11880       -3.43050
H         -0.49700       -5.01360       -2.04080
H         -1.58580       -2.17800       -1.61180
H          0.55210       -3.97980       -0.20400
H         -0.61940       -2.92680        0.67580
C          2.02840        1.63750       -1.80250
H          2.14740        1.55820       -2.90260
H          2.97570        2.00790       -1.35810
H          1.20540        2.35290       -1.58610
Br        -1.94210       -5.83130       -4.33410
Br        -3.84970       -3.78730       -2.89500
Br        -1.45830       -2.74820       -4.68670
