20
TSA8_9_Me_CCl3_F
C          2.59260       -1.45330        0.26220
C          1.29860       -1.89330        0.92720
C          2.28490       -0.47840       -0.88200
H          3.19940       -0.88270        1.00000
C          1.00320       -1.54370        2.37130
C          3.46610       -2.66750       -0.16170
C          2.83730       -3.62210       -1.15260
C          2.61070       -3.31180       -2.43240
O          0.48040       -2.52940        0.27690
F          3.77530       -3.38810        0.97950
H          4.42790       -2.30480       -0.58540
H          2.58840       -4.62520       -0.81720
H          2.17130       -4.04940       -3.09600
H          2.87450       -2.34330       -2.83980
H          1.61660       -0.93140       -1.64070
H          3.22710       -0.14270       -1.36480
H          1.76410        0.41720       -0.48050
Cl         2.24230       -2.24380        3.44340
Cl         0.99290        0.22620        2.58000
Cl        -0.58880       -2.16810        2.89170
