20
TSA8_9_Me_CCl3_F
C          1.67370       -0.08230        0.07280
C          1.44730       -1.31190        0.61390
C          1.82440        0.23740       -1.39030
H          1.72600        0.79000        0.71080
C          1.21480       -1.50240        2.10640
C          4.16710       -4.39580       -0.46890
C          2.86250       -4.19910       -0.68690
C          2.31510       -2.85820       -1.08170
O          1.39910       -2.45560       -0.12800
F          4.61710       -5.62590       -0.10850
H          4.88080       -3.58470       -0.57270
H          2.17350       -5.03080       -0.57180
H          1.80440       -2.96200       -2.06200
H          3.14620       -2.12440       -1.17780
H          1.66610       -0.62130       -2.06350
H          2.83070        0.66840       -1.57180
H          1.05950        0.99340       -1.66440
Cl         2.45300       -2.61450        2.74230
Cl         1.26700       -0.01570        3.10390
Cl        -0.38500       -2.24830        2.34670
