20
TSA8_9_Me_CCl3_F
C          2.71720       -1.16020       -0.00900
C          1.27960       -1.62590        0.34700
C          2.64880       -0.16700       -1.18510
H          3.16540       -0.55110        0.80500
C          0.98500       -2.00190        1.81910
C          3.64630       -2.35940       -0.30710
C          2.89040       -3.58440       -0.84310
C          1.55410       -3.20060       -1.47410
O          0.66730       -2.53080       -0.57990
F          4.31000       -2.74280        0.84660
H          4.43110       -2.04220       -1.02710
H          2.65040       -4.27970       -0.01450
H          1.06440       -4.14450       -1.79290
H          1.70030       -2.61580       -2.39980
H          2.23030       -0.59130       -2.11260
H          3.66580        0.21640       -1.41540
H          2.01800        0.70240       -0.89970
Cl         1.82590       -3.46660        2.38170
Cl         1.42030       -0.65420        2.90340
Cl        -0.76590       -2.27520        2.01030
