21
TSA8_9_OH_CCl3_CH2F
C          2.81150       -0.41090       -2.15950
C          1.32150       -0.27250       -1.68220
O          3.62550        0.43740       -1.39190
H          3.18180       -1.45560       -2.05210
C          0.59500       -1.61750       -1.48550
C          2.89690        0.00070       -3.64310
C          2.37460        1.44040       -3.82780
C          1.26160        1.75350       -2.81520
O          0.53720        0.58060       -2.51880
C          4.29490       -0.17830       -4.25000
H          2.21070       -0.67100       -4.20200
H          3.15720        2.22140       -3.71040
H          0.58910        2.53270       -3.22880
H          1.68750        2.18360       -1.87770
H          3.66240        0.04520       -0.48070
Cl         0.46830       -2.53400       -3.01130
Cl         1.43840       -2.61800       -0.27250
Cl        -1.05220       -1.31970       -0.87270
F          5.22240        0.63220       -3.61850
H          4.27050        0.07910       -5.33040
H          4.61590       -1.23720       -4.15210
