25
TSA8_9_CCl3_Et_NH2
C          1.40410        0.15080       -0.10180
C          1.34160        0.89490        1.02420
C          1.78810       -1.31250       -0.11910
H          1.16740        0.61520       -1.05560
C          0.90310        2.35590        0.92470
C          4.53250       -0.48610        3.69320
C          3.19330       -0.44100        3.74560
C          2.41300        0.73340        3.22990
O          1.59600        0.28510        2.21480
N          5.23860       -1.62050        4.16560
H          5.09400        0.34450        3.27570
H          2.64140       -1.28150        4.15660
H          3.11560        1.50690        2.86330
H          1.79500        1.13870        4.05690
Cl         0.66320       -2.28120        0.87140
Cl         1.72600       -1.93290       -1.78770
Cl         3.45170       -1.53520        0.48360
C          1.91280        3.38800        1.41740
H         -0.04420        2.48480        1.49000
H          0.68810        2.60900       -0.13690
H          2.04970        3.33200        2.51360
H          1.52150        4.40590        1.20600
H          2.88340        3.26510        0.89180
H          4.74060       -2.43340        4.55670
H          6.26570       -1.64450        4.10250
