18
TSA8_9_Br_CH2F_CN
C          2.48950       -1.24520       -1.32500
C          1.33690       -1.50830       -0.29710
Br         2.27290        0.59480       -1.92670
H          3.47050       -1.30240       -0.80610
C          1.89620       -1.60300        1.13430
C          2.51050       -2.15080       -2.57290
C          1.78910       -3.47380       -2.31300
C          0.40970       -3.10060       -1.80670
O          0.49230       -2.63770       -0.48200
C          3.86650       -2.43330       -3.04850
H          1.95040       -1.69000       -3.39760
H          2.31390       -4.10580       -1.56420
H         -0.20870       -4.01510       -1.80770
H         -0.10300       -2.35800       -2.46600
F          2.63990       -2.76400        1.28210
H          1.05400       -1.63860        1.85560
H          2.53580       -0.73170        1.38700
N          4.95590       -2.67020       -3.40430
