24
TSA8_9_OMe_CH2F_CBr3
C          2.50980       -1.27710       -0.00090
C          1.29570       -1.07290        0.88240
O          2.23900       -0.77840       -1.30160
H          3.36270       -0.74600        0.48120
C          1.41420       -0.26240        2.14250
C          2.90190       -2.78500       -0.07670
C          1.84400       -3.56810       -0.83450
C          1.12890       -4.54190       -0.26300
O          0.21800       -1.56050        0.57030
C          4.30660       -3.03410       -0.70400
H          2.96970       -3.15920        0.97110
H          1.65850       -3.33340       -1.87890
H          1.27750       -4.81300        0.77680
H          0.38370       -5.07560       -0.84410
C          2.57440        0.58880       -1.39760
H          3.67840        0.71850       -1.41480
H          2.10540        1.18900       -0.58730
H          2.17210        0.97810       -2.35420
F          0.20030       -0.19860        2.80460
H          1.74320        0.76800        1.89420
H          2.16540       -0.72970        2.81250
Br         4.72950       -4.93260       -0.66740
Br         4.46150       -2.44200       -2.55180
Br         5.70690       -2.16030        0.32500
