24
TSA8_9_OMe_CH2F_CBr3
C          1.50710       -0.04320        0.12850
C          1.36390       -0.86800        1.19230
O          1.49840       -0.49620       -1.14660
H          1.61260        1.02580        0.30330
C          1.34610       -0.28420        2.57790
C          3.64910       -4.24140       -0.15850
C          2.93440       -3.10880       -0.26550
C          1.45840       -3.07050        0.03860
O          1.21520       -2.22530        1.10630
C          5.12860       -4.27880       -0.43850
H          3.15330       -5.15890        0.14610
H          3.42900       -2.19060       -0.56680
H          1.10380       -4.08390        0.32560
H          0.86750       -2.77250       -0.85070
C          1.57580        0.32530       -2.25190
H          2.47050        0.05320       -2.84800
H          1.64270        1.40010       -1.97350
H          0.66990        0.17850       -2.87600
F          0.14490       -0.58880        3.18990
H          1.47330        0.81950        2.57610
H          2.17590       -0.72680        3.16810
Br         5.80520       -6.07610       -0.17550
Br         5.49440       -3.75260       -2.26960
Br         6.07620       -3.09310        0.76990
