21
TSA8_9_CHF2_CN_CHF2
C          2.41050        1.90700       -0.22240
C          1.32190        1.21340       -1.13130
C          2.25410        1.18360        1.17170
H          3.42310        1.65480       -0.61160
C          1.85950        0.45610       -2.26580
C          2.13680        3.46240       -0.40210
C          0.73920        3.74450        0.11150
C         -0.26700        2.77230       -0.47890
O          0.28300        2.05550       -1.56390
C          2.99160        4.69630       -0.01550
H          2.14240        3.58340       -1.51000
H          0.69170        3.75550        1.22470
H         -1.09140        3.41940       -0.84340
H         -0.67360        2.08340        0.29130
F          3.39890        0.47530        1.49710
F          1.92060        2.01830        2.21520
H          1.45180        0.39960        1.13260
N          2.31050       -0.15920       -3.13390
F          3.11390        4.89640        1.34450
F          4.22940        4.71580       -0.63010
H          2.43840        5.58500       -0.42690
