23
TSA8_9_CCl3_CHF2_Me
C          2.02670       -0.47440       -2.02940
C          0.66650       -1.15980       -2.07800
C          1.98380        0.70720       -0.99900
H          2.76260       -1.21570       -1.64350
C          0.51970       -2.58680       -1.62330
C          2.46210       -0.06300       -3.48090
C          3.85910        0.51180       -3.51440
C          4.10820        1.75060       -3.95160
O         -0.31350       -0.55260       -2.48630
C          2.44740       -1.26260       -4.44470
H          1.73570        0.68260       -3.87460
H          4.68930       -0.10340       -3.17800
H          3.30810        2.39670       -4.29830
H          5.12640        2.12560       -3.96220
Cl         0.92510        2.04400       -1.53800
Cl         1.37610        0.13380        0.58270
Cl         3.59800        1.38940       -0.65560
F         -0.79410       -3.00610       -1.74190
F          1.32500       -3.41110       -2.38660
H          0.82480       -2.66860       -0.55940
H          1.42950       -1.69550       -4.53270
H          3.14640       -2.05430       -4.09830
H          2.75300       -0.93720       -5.46280
