29
TSA8_9_CHF2_Et_Et
C          2.75880        1.73780       -0.22900
C          1.44780        2.13740       -0.88760
C          2.52380        0.56330        0.74360
H          3.43140        1.33430       -1.01430
C          1.28850        2.00510       -2.38420
C          3.50080        2.93780        0.45110
C          2.68410        3.56090        1.56760
C          3.09670        3.55380        2.83870
O          0.51870        2.54550       -0.20440
C          3.88840        4.05840       -0.54440
H          4.45070        2.54400        0.87910
H          1.73880        4.04130        1.33820
H          2.48590        4.01560        3.60790
H          4.03650        3.09190        3.12420
F          3.72730        0.13020        1.27180
F          1.67570        0.91540        1.77890
H          2.06520       -0.28520        0.19150
C         -0.09700        2.42570       -2.87700
H          1.46160        0.94630       -2.67130
H          2.04990        2.64010       -2.88350
H         -0.88030        1.78780       -2.41410
H         -0.15160        2.30990       -3.97980
H         -0.29150        3.48950       -2.62130
C          4.88270        3.60890       -1.61810
H          4.38090        4.87770        0.02550
H          2.98120        4.47780       -1.03130
H          5.80550        3.21170       -1.14400
H          5.15820        4.47910       -2.25040
H          4.45020        2.83600       -2.28280
