20
TSA8_9_CH2F_F_CH2F
C          1.48630       -0.11840        2.25140
C          1.38580        0.89050        1.12950
C          1.29980       -1.54230        1.69200
H          2.52080       -0.05350        2.65630
F          2.46050        1.66230        0.82070
C          0.51130        0.24440        3.41410
C         -0.94330        0.19110        2.99110
C         -1.72530        1.27510        3.01180
O          0.35580        1.01510        0.48500
C          0.71470       -0.65850        4.64130
H          0.77010        1.27930        3.73650
H         -1.37030       -0.75260        2.66600
H         -1.34280        2.23950        3.33180
H         -2.76330        1.20060        2.70440
F          2.23820       -1.78820        0.70450
H          0.28770       -1.67220        1.25570
H          1.44450       -2.30030        2.48730
F         -0.07860       -0.22100        5.68800
H          1.77530       -0.62010        4.96910
H          0.44720       -1.71210        4.41910
