20
TSA8_9_CH2F_F_CH2F
C          1.83260        0.03530        0.06990
C          1.12680        0.78590        0.92790
C          2.06190       -1.43870        0.25240
H          2.26010        0.50960       -0.80860
F          0.97000        2.11280        0.66600
C         -0.36670        0.33170        5.31230
C         -0.65620        0.06360        4.03080
C         -0.20940        0.96110        2.91350
O          0.57300        0.24020        2.03860
C         -0.82050       -0.57470        6.41570
H          0.20670        1.21770        5.57120
H         -1.23170       -0.82380        3.78050
H          0.36790        1.82870        3.30430
H         -1.10890        1.34080        2.38210
F          3.41990       -1.68500        0.32140
H          1.63990       -1.97950       -0.62000
H          1.58070       -1.83240        1.17200
F         -2.20120       -0.65430        6.42540
H         -0.47580       -0.17450        7.39290
H         -0.39230       -1.58880        6.27310
