20
TSA8_9_CF3_F_CH2F
C          1.81290       -0.01020       -0.10610
C          1.67230        1.20860       -0.68620
C          1.80100       -0.44430        1.34140
H          1.99470       -0.83250       -0.79350
F          1.82990        1.24870       -2.03560
C          0.96740        4.65350        2.42320
C          1.29340        3.40840        2.04580
C          0.54200        2.68260        0.95990
O          1.39860        2.40260       -0.08610
C          1.73500        5.35920        3.49980
H          0.13950        5.17330        1.94890
H          2.12830        2.91520        2.53240
H         -0.26840        3.33290        0.56550
H          0.03510        1.77410        1.33990
F          2.96850       -1.14190        1.58760
F          1.74580        0.58130        2.25000
F          0.73110       -1.29340        1.54940
F          1.64670        4.65160        4.68490
H          1.31560        6.37520        3.65390
H          2.80150        5.45290        3.20410
