23
TSA8_9_NO2_CH2F_OMe
C          1.88710       -0.07150       -0.01760
C          1.44640       -1.33260       -0.30940
N          1.93760        1.07320       -0.86720
H          2.22950        0.10180        1.00080
C          1.40400       -2.33620        0.81520
C          3.53920       -2.43560       -3.78200
C          2.91860       -1.56060       -2.96740
C          1.41850       -1.54410       -2.82030
O          1.04990       -1.83970       -1.51890
O          4.89060       -2.48820       -3.93940
H          2.94440       -3.14370       -4.35050
H          3.49080       -0.84120       -2.39200
H          0.95700       -2.31480       -3.47370
H          0.98960       -0.60490       -3.18490
O          2.47670        2.05660       -0.46030
O          1.16640        1.18150       -1.91980
F          0.10990       -2.79780        0.96960
H          1.74350       -1.91870        1.78740
H          2.06440       -3.19190        0.56260
C          5.81440       -1.69620       -3.28860
H          6.83320       -1.97570       -3.62710
H          5.74960       -1.85590       -2.19100
H          5.64230       -0.62570       -3.52990
