19
TSA8_9_CN_NH2_NO2
C          2.80410        1.20010        0.25840
C          1.76320        1.60650       -0.78510
C          2.18270        0.18010        1.14180
H          3.65350        0.70030       -0.27990
N          1.87370        1.24180       -2.08030
C          3.28210        2.47820        1.04370
C          2.47170        2.58940        2.31840
C          1.27090        3.15590        2.34760
O          0.82280        2.30880       -0.45360
N          4.70190        2.52470        1.36750
H          3.10240        3.36460        0.38820
H          2.78600        2.00430        3.18040
H          0.87530        3.67430        1.48640
H          0.66090        3.05130        3.23450
N          1.71560       -0.56760        1.87560
H          1.17730        1.57750       -2.76510
H          2.62140        0.61520       -2.39890
O          5.18060        1.76010        2.14890
O          5.43760        3.51830        0.90820
