19
TSA8_9_CN_NH2_NO2
C          2.84140        1.17750        0.32820
C          1.47000        1.52440       -0.33740
C          2.52740        0.21700        1.40340
H          3.51600        0.65380       -0.38430
N          1.53140        1.47880       -1.79860
C          3.43300        2.52290        0.84830
C          2.50310        3.08940        1.91770
C          1.04090        2.95550        1.47130
O          0.93940        2.79090        0.06760
N          4.80400        2.53020        1.32760
H          3.40550        3.22190       -0.01690
H          2.62600        2.55150        2.88910
H          0.52630        3.88580        1.78190
H          0.53230        2.11080        1.98670
N          2.26670       -0.52050        2.25690
H          2.12870        2.25070       -2.17210
H          1.90180        0.55350       -2.11700
O          5.13050        1.85810        2.25810
O          5.58510        3.52550        0.95510
