14
TSA8_9_Br_Br_Cl
C          1.75850       -1.65260       -1.06420
C          0.50940       -2.27600       -0.50110
Br         1.51610        0.27930       -1.10360
H          2.61150       -1.87650       -0.38710
Br         0.58380       -3.28770        1.11990
C          2.07430       -2.19850       -2.47110
C          3.34070       -1.58340       -3.00990
C          3.35700       -0.86940       -4.13960
O         -0.56200       -2.14090       -1.07150
Cl         2.30480       -3.97040       -2.42100
H          1.21720       -1.98100       -3.14680
H          4.26900       -1.72540       -2.46350
H          2.45090       -0.70450       -4.71440
H          4.28820       -0.44180       -4.49670
