14
TSA8_9_Br_Br_Cl
C          2.34230       -1.69740       -0.89060
C          0.97000       -1.03560       -1.21460
Br         3.73370       -0.34310       -0.68340
H          2.29050       -2.20630        0.09590
Br        -0.45120       -2.07770       -0.39790
C          2.66720       -2.69590       -2.00550
C          2.72590       -1.98360       -3.36620
C          1.81000       -0.74620       -3.39310
O          0.65680       -0.95320       -2.60810
Cl         4.16510       -3.61700       -1.69640
H          1.82960       -3.42630       -2.04220
H          3.74810       -1.64010       -3.63640
H          1.52430       -0.53000       -4.44300
H          2.34020        0.16360       -3.03590
