19
TSA8_9_CN_CHF2_OH
C          2.53530        0.31860       -1.72750
C          1.58850       -0.83600       -2.05350
C          2.23170        1.00650       -0.44660
H          3.52730       -0.16150       -1.60080
C          1.50830       -2.07480       -1.20910
C          2.62180        1.36360       -2.90240
C          1.63600        2.48840       -2.66490
C          0.31920        2.30210       -2.70510
O          0.97340       -0.84680       -3.10860
O          3.91810        1.90240       -2.95130
H          2.44630        0.87660       -3.89400
H          2.03010        3.46030       -2.37710
H         -0.09930        1.34560       -2.98540
H         -0.34430        3.11440       -2.44020
N          1.99280        1.61820        0.51620
F          0.18400       -2.37070       -0.94160
F          2.05890       -3.12240       -1.92820
H          2.06730       -1.97430       -0.25730
H          3.92690        2.55790       -3.70350
