24
TSA8_9_F_OMe_Et
C          2.46290       -0.23570        1.30240
C          1.89210        0.95550        0.57420
F          1.42950       -0.96640        1.86710
H          2.98320       -0.87490        0.55710
O          2.73440        1.80100       -0.07600
C          3.47720        0.21740        2.38050
C          2.80330        1.09540        3.41570
C          3.15290        2.37350        3.59230
O          0.68510        1.15650        0.58680
C          4.23170       -0.95810        3.05150
H          4.26340        0.80660        1.85420
H          2.00590        0.68510        4.02750
H          3.93990        2.82920        2.99890
H          2.64520        2.97620        4.33780
C          2.36440        2.97130       -0.71020
H          2.63730        2.90690       -1.78410
H          2.91320        3.81910       -0.25170
H          1.27510        3.17500       -0.63050
C          3.37450       -1.92430        3.87660
H          5.00290       -0.52960        3.72900
H          4.76200       -1.54140        2.26740
H          2.85390       -1.39320        4.69930
H          4.03320       -2.69430        4.33060
H          2.63520       -2.45340        3.24480
