17
TSA8_9_I_I_CH2F
C          2.40840        2.16860       -1.09930
C          1.17780        1.67040       -0.28400
I          4.21980        1.31730       -0.28800
H          2.35850        1.75650       -2.12980
I         -0.48070        1.36420       -1.60670
C          2.37710        3.70760       -1.12070
C          2.42820        4.25900        0.31700
C          1.78410        3.28120        1.31630
O          0.71650        2.57960        0.71920
C          3.43120        4.35820       -2.02740
H          1.38430        3.98530       -1.54070
H          3.45820        4.46780        0.67940
H          1.42310        3.84960        2.19800
H          2.52590        2.55570        1.71440
F          4.71580        4.11390       -1.57770
H          3.27180        5.45720       -2.05230
H          3.32980        3.96960       -3.06290
