17
TSA8_9_I_Cl_CHF2
C          1.78560        0.05470       -0.14660
C          1.48650        0.97090       -1.07560
I          1.99920        0.53780        1.90390
H          1.91700       -0.98400       -0.43290
Cl         1.29730        0.47540       -2.75160
C          2.23530        3.89590       -3.05670
C          2.95670        3.41120       -2.03590
C          2.34200        3.18600       -0.68160
O          1.30680        2.27150       -0.74050
C          2.84890        4.12440       -4.40520
H          1.18420        4.13220       -2.91360
H          4.00890        3.17870       -2.17640
H          1.94810        4.15220       -0.30190
H          3.11980        2.82810        0.02670
F          3.88770        5.03210       -4.30450
F          3.32690        2.93070       -4.91480
H          2.08250        4.53020       -5.09790
