21
TSA8_9_CCl3_Cl_OMe
C          2.72160       -0.81200       -0.31800
C          1.53870       -1.60980        0.21860
C          2.27920        0.45930       -1.13180
H          3.24450       -0.42380        0.58420
Cl         1.80440       -2.91450        1.36920
C          3.74520       -1.75500       -1.04710
C          3.24090       -2.36240       -2.34420
C          2.21910       -3.22260       -2.41210
O          0.39050       -1.35440       -0.11000
O          4.93000       -1.02140       -1.31460
H          3.96710       -2.59050       -0.33950
H          3.75120       -2.10580       -3.26860
H          1.68020       -3.54490       -1.53080
H          1.91950       -3.62710       -3.37320
Cl         1.35270        0.07630       -2.61270
Cl         1.25050        1.51010       -0.11300
Cl         3.66370        1.48190       -1.60860
C          6.06790       -1.85640       -1.26770
H          6.26930       -2.19260       -0.22710
H          6.94650       -1.26860       -1.60350
H          5.97240       -2.72030       -1.96240
