21
TSA8_9_CCl3_Cl_OMe
C          2.69230       -0.72690       -0.34380
C          1.43320       -1.59370       -0.11070
C          2.30590        0.62500       -1.03810
H          3.10050       -0.42680        0.64720
Cl         1.59820       -2.78710        1.21970
C          3.76450       -1.62410       -1.03000
C          3.18740       -2.31920       -2.26820
C          1.89870       -3.05400       -1.87860
O          0.93920       -2.17460       -1.30980
O          4.92290       -0.87740       -1.35490
H          4.00420       -2.42190       -0.28480
H          3.00140       -1.60170       -3.08750
H          2.12050       -3.89980       -1.19250
H          1.46640       -3.50570       -2.79540
Cl         1.52750        0.47690       -2.63890
Cl         1.14640        1.49940        0.00390
Cl         3.71510        1.70750       -1.21100
C          6.05130       -1.72090       -1.44030
H          6.29740       -2.16460       -0.45050
H          6.92230       -1.10730       -1.74880
H          5.91650       -2.50550       -2.21710
