20
TSA8_9_CBr3_F_CBr3
C          1.85510       -0.63480        2.17270
C          2.84630       -1.77210        2.30710
C          1.55230       -0.35630        0.66380
H          2.35860        0.28850        2.52990
F          2.52450       -3.03390        1.91990
C          0.57950       -0.81750        3.08240
C         -0.25450       -2.02070        2.68490
C         -1.51000       -1.89620        2.23990
O          3.95980       -1.55840        2.76050
C          0.87430       -0.86730        4.61710
H         -0.03050        0.10050        2.94550
H          0.16640       -3.01700        2.76850
H         -1.97890       -0.92210        2.14150
H         -2.07860       -2.77950        1.96790
Br         0.37440        1.17410        0.43950
Br         3.20070        0.10560       -0.26130
Br         0.77680       -1.85200       -0.31440
Br        -0.79850       -0.82750        5.61000
Br         1.82610       -2.45950        5.21220
Br         1.87720        0.68930        5.21090
