20
TSA8_9_CBr3_F_CBr3
C          1.54260        0.00920       -0.00350
C          1.58770       -0.70580        1.12930
C          2.08050       -0.50210       -1.31670
H          1.06220        0.98340        0.02220
F          2.13620       -1.95260        1.14790
C         -0.03350       -1.31090        5.35240
C          0.50220       -1.56160        4.14770
C          0.01070       -0.87610        2.90610
O          1.03550       -0.20930        2.25930
C          0.40060       -2.06300        6.58300
H         -0.82020       -0.56660        5.44270
H          1.27970       -2.31330        4.04370
H         -0.79790       -0.14790        3.12180
H         -0.41850       -1.66210        2.24910
Br         1.67870        0.76680       -2.72430
Br         4.00280       -0.73180       -1.22810
Br         1.24860       -2.19170       -1.79660
Br        -0.60960       -1.45390        8.12090
Br         0.06140       -3.96170        6.35800
Br         2.28690       -1.78850        6.93750
