23
TSA8_9_NO2_Et_OH
C          2.57860        0.82790       -1.31090
C          1.33930       -0.00310       -1.59100
N          2.64220        1.15800        0.10340
H          3.45730        0.19030       -1.56200
C          1.45410       -1.39640       -2.15840
C          2.73740        2.10340       -2.18970
C          1.69190        3.18370       -1.98910
C          0.42890        3.07740       -2.41040
O          0.23240        0.42240       -1.29940
O          3.99680        2.65480       -1.89630
H          2.72810        1.78890       -3.26070
H          1.99330        4.11600       -1.51880
H          0.07540        2.19710       -2.93270
H         -0.26230        3.89910       -2.25220
O          3.53710        0.74130        0.77530
O          1.71150        1.90430        0.66060
C          2.06410       -1.39110       -3.55840
H          0.44460       -1.85910       -2.22170
H          2.07870       -2.01670       -1.48070
H          1.43580       -0.78870       -4.24830
H          2.11700       -2.43210       -3.94140
H          3.09250       -0.97420       -3.54580
H          4.28410        3.17040       -2.69560
