19
TSA8_9_CN_CHF2_CN
C          2.55560        1.07770       -0.63050
C          1.76090        0.20320       -1.64480
C          1.72110        1.34630        0.55770
H          3.41560        0.50310       -0.23700
C          1.71160       -1.31160       -1.63600
C          3.05350        2.51430       -1.13440
C          2.49110        2.88710       -2.48450
C          1.24520        3.35450       -2.57280
O          1.02690        0.71600       -2.47180
C          4.47660        2.83700       -1.09490
H          2.68090        3.29940       -0.43870
H          3.07470        2.68670       -3.37990
H          0.80270        3.53900       -3.53770
H          0.65430        3.49230       -1.66830
N          1.10670        1.58090        1.50990
F          0.99980       -1.76500       -2.74490
F          2.98030       -1.85110       -1.69520
H          1.18230       -1.68080       -0.73340
N          5.58270        3.16860       -1.08310
