17
TSA8_9_Cl_I_CBr3
C          3.22580        1.24520       -1.08520
C          1.73990        1.02050       -1.20920
Cl         3.82180        0.27610        0.29790
H          3.68300        0.82780       -2.00390
I          0.94880        0.11320       -2.94460
C          3.56860        2.76680       -0.99670
C          3.03940        3.36580        0.29440
C          2.09740        4.31390        0.30510
O          0.97850        1.34720       -0.31220
C          5.08040        3.10760       -1.17370
H          3.05930        3.24600       -1.86410
H          3.43630        3.01840        1.24360
H          1.66990        4.69270       -0.61850
H          1.74590        4.71750        1.24890
Br         5.31580        5.03740       -1.23470
Br         6.24040        2.45060        0.24340
Br         5.76310        2.43660       -2.86670
