17
TSA8_9_Cl_I_CBr3
C          3.19410        1.39640       -0.91170
C          1.65040        1.34920       -1.11980
Cl         3.57650        0.88540        0.76260
H          3.66270        0.63260       -1.56540
I          1.21320        0.75550       -3.13240
C          3.68170        2.82470       -1.25610
C          2.97810        3.84580       -0.33380
C          1.58530        3.35590        0.10020
O          0.97930        2.59630       -0.92120
C          5.21880        3.04600       -1.33690
H          3.30080        3.01540       -2.28450
H          3.54430        4.08150        0.59210
H          0.95430        4.23340        0.34950
H          1.63640        2.75060        1.03190
Br         5.58700        4.84190       -1.98200
Br         6.15730        2.84840        0.35550
Br         6.02570        1.82440       -2.61360
