24
TSA8_9_CCl3_CBr3_OMe
C          2.64900       -0.71960       -1.64280
C          1.33160       -1.49810       -1.56930
C          2.55880        0.67330       -0.92140
H          3.41150       -1.30900       -1.08630
C          1.22810       -2.86270       -0.89380
C          3.18660       -0.63110       -3.11430
C          2.28880        0.16910       -4.04010
C          2.71770        1.28110       -4.64570
O          0.33210       -1.01950       -2.08450
O          3.34150       -1.94810       -3.61840
H          4.18680       -0.14700       -3.04180
H          1.27670       -0.16870       -4.23340
H          2.05500        1.82850       -5.30720
H          3.72540        1.65470       -4.48790
Cl         1.34110        1.78260       -1.61860
Cl         2.13310        0.48600        0.79840
Cl         4.13640        1.51150       -0.94560
Br         1.68260       -2.78720        0.98690
Br        -0.57490       -3.58380       -1.01220
Br         2.40750       -4.15500       -1.72680
C          4.13280       -1.96400       -4.78870
H          5.06470       -1.36350       -4.68880
H          3.53690       -1.63660       -5.66780
H          4.45580       -3.00880       -4.97550
