24
TSA8_9_CCl3_CBr3_OMe
C          1.53320       -0.01910        0.00020
C          1.47270       -0.91890       -1.02730
C          1.72880        1.48760       -0.07160
H          1.36290       -0.38490        1.00240
C          1.17080       -2.39320       -0.78260
C          4.19650       -0.26720       -4.82690
C          3.18280       -0.73200       -4.07380
C          2.64300        0.09080       -2.94180
O          1.59530       -0.57340       -2.34130
O          4.75830       -0.96710       -5.85070
H          4.59990        0.71800       -4.61230
H          2.74870       -1.70890       -4.26510
H          2.28040        1.06410       -3.33570
H          3.48010        0.23170       -2.23880
Cl         0.60860        2.23500       -1.24110
Cl         1.35410        2.18930        1.52640
Cl         3.40700        1.97250       -0.41590
Br         0.94710       -2.96590        1.07010
Br        -0.46530       -2.85320       -1.71450
Br         2.60890       -3.45860       -1.52470
C          4.44200       -2.25920       -6.21520
H          5.07530       -2.55760       -7.07580
H          3.37580       -2.32660       -6.51760
H          4.64450       -2.95240       -5.37030
