14
TSA8_9_Cl_I_I
C          1.61880       -0.23420        2.17270
C          1.04220        0.79310        1.18760
Cl         1.20830       -1.87590        1.58380
H          2.72650       -0.15890        2.19280
I          1.86590        2.77740        1.36090
C          1.04050        0.03770        3.57100
C         -0.48630        0.06450        3.49670
C         -0.91490        1.08510        2.43390
O         -0.37810        0.77130        1.15740
I          1.70890       -1.38170        5.03230
H          1.38830        1.03460        3.91880
H         -0.87930       -0.93920        3.22620
H         -0.63950        2.11650        2.74220
H         -2.02230        1.06610        2.36420
