23
TSA8_9_Et_CF3_F
C          2.52960        1.23450       -0.33580
C          1.30220        1.07140       -1.21530
C          2.36220        0.34990        0.92660
H          3.38730        0.83460       -0.92210
C          1.44420        0.51430       -2.60670
C          2.88400        2.72460       -0.03790
C          1.98670        3.43900        0.94990
C          0.73620        3.82430        0.68430
O          0.19030        1.34140       -0.78920
F          4.17320        2.77190        0.46260
H          2.91270        3.30030       -0.98870
H          2.39850        3.69070        1.92420
H          0.27780        3.65530       -0.28020
H          0.16320        4.34960        1.44190
C          3.61250        0.25410        1.80010
H          2.11720       -0.68430        0.59670
H          1.51540        0.72080        1.54450
H          4.46690       -0.13400        1.20600
H          3.41800       -0.44580        2.63990
H          3.87480        1.23580        2.24120
F          0.20940        0.42830       -3.22670
F          2.26430        1.33900       -3.35480
F          2.00230       -0.74890       -2.54520
