19
TSA8_9_OH_I_OMe
C          2.94310        0.51030        0.75540
C          1.56560        0.88640        0.27630
O          3.06150       -0.88780        0.70550
H          3.66390        0.97690        0.04830
I          1.32380        2.12150       -1.42000
C          3.19320        1.01260        2.20200
C          3.02530        2.52040        2.31580
C          2.08630        3.07260        3.09090
O          0.57390        0.48000        0.86180
O          4.43430        0.55660        2.73510
H          2.41440        0.53230        2.83550
H          3.67580        3.17670        1.74610
H          1.99290        4.15240        3.14250
H          1.40660        2.46130        3.67660
H          4.02940       -1.09400        0.62850
C          5.56960        1.14500        2.12990
H          6.47100        0.66560        2.56310
H          5.65340        2.22490        2.37040
H          5.62130        0.95160        1.04020
