17
TSA8_9_Br_OH_NO2
C          2.01830       -0.89610       -1.78930
C          0.80380       -1.77390       -1.60250
Br         1.66680        0.82720       -0.95280
H          2.88900       -1.35080       -1.26770
O          0.88590       -2.93280       -0.91480
C          2.35670       -0.72910       -3.28860
C          3.57220        0.15260       -3.46780
C          3.51920        1.30410       -4.14510
O         -0.27040       -1.43780       -2.07680
N          2.61100       -2.02200       -3.89940
H          1.47960       -0.25960       -3.79130
H          4.51880       -0.15760       -3.03370
H          2.59350        1.65090       -4.59410
H          4.41180        1.91120       -4.25310
H          1.71640       -3.23840       -0.52490
O          3.50570       -2.71260       -3.51220
O          1.85010       -2.44230       -4.88710
