17
TSA8_9_Br_OH_NO2
C          1.78840       -0.11400       -0.10400
C          1.59680       -0.66090       -1.31400
Br         1.78910        1.78410        0.16020
H          1.94890       -0.74760        0.76260
O          1.59570       -2.00470       -1.46880
C          2.47010       -1.46450       -4.67380
C          3.12200       -0.60440       -3.87340
C          2.41320        0.55310       -3.22370
O          1.39040        0.12610       -2.39770
N          3.12470       -2.56470       -5.29630
H          1.40780       -1.31980       -4.85380
H          4.18350       -0.72860       -3.68060
H          1.98820        1.20840       -4.01300
H          3.14210        1.15020       -2.63400
H          1.73030       -2.61470       -0.72910
O          4.29010       -2.76640       -5.12810
O          2.43490       -3.37460       -6.06900
