25
TSA8_9_CF3_NO2_Et
C          2.89140       -1.05590        0.79920
C          1.60840       -0.51600        1.43550
C          2.62710       -1.36360       -0.69140
H          3.65050       -0.24460        0.79760
N          1.53400        0.74890        1.93790
C          3.48220       -2.20510        1.69710
C          2.49900       -3.32880        1.97260
C          2.03090       -3.57220        3.20180
O          0.62010       -1.23870        1.48330
C          4.86180       -2.78190        1.27020
H          3.69170       -1.68300        2.66010
H          2.15650       -3.95690        1.15710
H          2.33960       -2.97120        4.05180
H          1.32690       -4.38150        3.36430
F          3.81650       -1.52610       -1.37140
F          1.83480       -2.48630       -0.84560
F          1.98270       -0.28690       -1.27810
O          0.51560        1.14260        2.42410
O          2.57510        1.55420        1.90180
C          4.86620       -3.88210        0.19440
H          5.30220       -3.26740        2.16990
H          5.53930       -1.94970        0.98300
H          4.28500       -4.76450        0.53210
H          5.91190       -4.21810        0.03030
H          4.46650       -3.56800       -0.77850
