25
TSA8_9_CF3_NO2_Et
C          3.03070       -1.10810        0.70230
C          1.72910       -0.61390        1.38660
C          2.70320       -1.48880       -0.76010
H          3.72490       -0.24320        0.61860
N          1.95350        0.31150        2.48920
C          3.68460       -2.18760        1.62270
C          2.66350       -3.26920        1.99870
C          1.42020       -2.61160        2.59620
O          0.82910       -1.67160        1.70800
C          5.04680       -2.79410        1.19150
H          3.92100       -1.63480        2.56130
H          2.37340       -3.87630        1.11870
H          1.66730       -2.15500        3.57580
H          0.67790       -3.40820        2.81090
F          3.86260       -1.64860       -1.48920
F          1.92970       -2.63070       -0.84410
F          2.00470       -0.45040       -1.35390
O          1.35300        0.20270        3.51420
O          2.66640        1.39740        2.28000
C          5.02310       -3.92590        0.15290
H          5.49610       -3.25360        2.10040
H          5.72600       -1.97800        0.86460
H          4.42960       -4.78720        0.52200
H          6.06230       -4.28360       -0.00780
H          4.62660       -3.63080       -0.82700
