21
TSA8_9_CBr3_NO2_NH2
C          1.82510        1.11250       -1.65500
C          0.69500        0.28160       -2.27260
C          1.37360        1.77620       -0.31980
H          2.63760        0.42440       -1.33820
N          0.79890       -1.06880       -2.43180
C          2.45030        2.15600       -2.65960
C          3.85950        1.74850       -3.04050
C          4.91790        2.50930       -2.73730
O         -0.33250        0.84630       -2.62370
N          1.64530        2.33670       -3.87290
H          2.50460        3.14690       -2.15840
H          4.01660        0.81120       -3.56580
H          4.80190        3.45050       -2.20770
H          5.91620        2.19030       -3.01640
Br         0.69700        0.43780        0.91870
Br         2.88590        2.61740        0.57360
Br        -0.00320        3.13020       -0.56380
O         -0.10320       -1.68650       -2.91040
O          1.88720       -1.71090       -2.06380
H          1.66460        1.46250       -4.44870
H          2.05980        3.10270       -4.45280
