21
TSA8_9_CBr3_NO2_NH2
C          1.54130        0.04200       -0.05450
C          1.43070        0.08640       -1.40790
C          1.74830        1.22490        0.87050
H          1.44180       -0.92480        0.42870
N          1.19500       -1.11230       -2.14870
C          2.82000        3.11090       -4.60430
C          2.78550        1.96220       -3.91620
C          2.63940        1.92660       -2.42350
O          1.47920        1.25820       -2.09420
N          2.97610        3.10500       -6.01260
H          2.73000        4.06290       -4.08890
H          2.87340        1.01570       -4.44180
H          2.58960        2.95210       -1.99700
H          3.53340        1.40750       -2.01780
Br         1.58250        0.62450        2.70760
Br         3.52210        1.99180        0.71830
Br         0.40920        2.59940        0.58730
O          1.06370       -1.05950       -3.33470
O          1.10940       -2.27970       -1.54630
H          3.07950        2.22140       -6.53370
H          2.99980        3.99560       -6.52880
