18
TSA8_9_Cl_CN_CH2F
C          1.69600       -0.04760        0.03170
C          1.55150       -1.37970        0.28150
Cl         1.75160        0.80390       -1.50910
H          1.56090        0.64620        0.86450
C          1.42130       -1.77860        1.65180
C          3.08300       -3.15110       -3.42730
C          2.60690       -2.18030       -2.63590
C          1.25570       -2.28500       -1.99210
O          1.41020       -2.37980       -0.63080
C          4.41730       -3.02970       -4.10310
H          2.50080       -4.05120       -3.59720
H          3.21420       -1.30160       -2.45210
H          0.72290       -3.19370       -2.36210
H          0.58530       -1.44070       -2.25410
N          1.31850       -2.07750        2.76310
F          4.40980       -1.94920       -4.96770
H          4.62230       -3.94970       -4.69090
H          5.22600       -2.89830       -3.35510
