21
TSA8_9_OH_OMe_NH2
C          3.29240        1.32510       -0.00390
C          2.19740        1.54420       -1.02080
O          2.90000        0.33820        0.91560
H          4.18570        0.97120       -0.57160
O          2.47990        1.33950       -2.33300
C          3.77280        2.59620        0.75250
C          2.77230        3.17920        1.73820
C          1.65810        3.82180        1.37830
O          1.06480        1.83560       -0.66700
N          5.00720        2.25890        1.46970
H          4.03900        3.37970        0.00730
H          2.98960        3.11290        2.80160
H          1.39720        3.97630        0.33990
H          1.00240        4.22850        2.14210
H          2.97900       -0.53670        0.45290
C          1.56990        1.50360       -3.35510
H          2.06090        1.25730       -4.31980
H          1.22220        2.55780       -3.39040
H          0.70360        0.82390       -3.21170
H          4.81700        1.56020        2.22520
H          5.41140        3.12180        1.90290
