21
TSA8_9_OH_OMe_NH2
C          1.74580       -0.04250        0.05300
C          1.76830        0.95640       -0.85260
O          1.64730        0.17560        1.37880
H          1.79830       -1.06930       -0.29900
O          1.85080        0.60650       -2.16090
C          4.27330        3.88360        0.97200
C          3.48000        2.80340        0.92880
C          2.00340        2.91930        0.65630
O          1.70470        2.28610       -0.53630
N          5.66610        3.75640        1.19680
H          3.85670        4.87570        0.82160
H          3.90820        1.81550        1.07170
H          1.71920        3.98730        0.54770
H          1.40070        2.52000        1.49530
H          1.61910       -0.56680        1.99880
C          2.00360        1.52390       -3.17810
H          2.04490        0.98890       -4.14850
H          2.95300        2.08570       -3.04060
H          1.14850        2.23280       -3.19170
H          6.10400        2.83250        1.32650
H          6.25920        4.59840        1.21030
