18
TSA8_9_CBr3_OH_I
C          0.93920        0.59020        1.16900
C          0.93460       -0.59230        2.16060
C          1.91240        0.41990       -0.03350
H         -0.07130        0.54740        0.70300
O          2.11070       -0.65030        2.91240
C          0.96630        1.93860        1.95710
C          0.20050        1.80370        3.28960
C         -0.81580        0.65630        3.23410
O         -0.20180       -0.61700        3.02770
I          2.86980        2.82480        2.44780
H          0.46020        2.69310        1.31740
H          0.90240        1.52500        4.10630
H         -1.58060        0.84560        2.45050
H         -1.34270        0.62950        4.21080
Br         1.76180        1.91740       -1.26110
Br         3.78890        0.18510        0.42590
Br         1.41270       -1.17010       -1.03370
H          2.48910       -1.54410        2.71470
