18
TSA8_9_I_CF3_OH
C          1.99200       -0.16610        0.29130
C          1.51180       -0.98570        1.26650
I          2.70600       -0.60200       -1.66320
H          2.02470        0.90330        0.46700
C          1.02620       -0.39730        2.57240
C          4.15060       -4.35500        1.04550
C          3.51770       -3.25700        0.60500
C          2.03330       -3.24660        0.34120
O          1.41150       -2.34620        1.18240
O          5.47960       -4.34440        1.29160
H          3.59970       -5.27420        1.21690
H          4.08530       -2.34620        0.44380
H          1.60610       -4.25060        0.55040
H          1.80000       -3.03490       -0.71650
F         -0.29930       -0.74030        2.76020
F          1.77420       -0.92990        3.60620
F          1.13500        0.98250        2.61790
H          6.02460       -3.55350        1.16860
