20
TSA8_9_CH2F_Cl_CF3
C          1.48160       -0.98370       -2.12410
C          0.95110       -1.10750       -0.71070
C          1.66270        0.51120       -2.45690
H          2.49340       -1.44550       -2.12950
Cl         1.91330       -1.90490        0.52400
C          0.58150       -1.80280       -3.11130
C         -0.84260       -1.28400       -3.16020
C         -1.88080       -2.02720       -2.76300
O         -0.13740       -0.64520       -0.40550
C          1.13290       -1.90260       -4.54960
H          0.58190       -2.84590       -2.71790
H         -1.03170       -0.28160       -3.53200
H         -1.73980       -3.03540       -2.38590
H         -2.88680       -1.62390       -2.81350
F          2.36270        0.69020       -3.63350
H          2.26450        0.99200       -1.65540
H          0.68700        1.03670       -2.51280
F          1.07050       -0.68970       -5.21060
F          2.44260       -2.34790       -4.53070
F          0.37520       -2.81320       -5.26580
