20
TSA8_9_CH2F_Cl_CF3
C          1.47370       -1.15870       -2.42630
C          0.90000       -1.41690       -1.01790
C          1.66910        0.35820       -2.61410
H          2.48350       -1.62010       -2.49400
Cl         1.09540       -3.10500       -0.44360
C          0.53020       -1.83040       -3.46510
C         -0.91170       -1.35500       -3.24060
C         -1.30380       -1.60540       -1.77940
O         -0.43190       -0.93910       -0.87920
C          0.95200       -1.65880       -4.93710
H          0.55240       -2.92500       -3.26250
H         -1.01550       -0.27480       -3.47590
H         -1.34730       -2.69500       -1.56320
H         -2.33260       -1.21830       -1.62620
F          2.51600        0.84540       -1.63350
H          0.70810        0.90800       -2.54850
H          2.14210        0.57410       -3.59190
F          0.85600       -0.34130       -5.34680
F          2.25330       -2.09580       -5.10890
F          0.12360       -2.42090       -5.74210
