17
TSA8_9_I_I_CF3
C          1.77820       -0.05120       -0.15410
C          1.43960       -0.08170       -1.45000
I          2.02800        1.74540        0.94010
H          1.91210       -0.98180        0.38720
I          1.15370       -1.94810       -2.39980
C          2.36210        0.65510       -4.88380
C          3.00070        1.05160       -3.77320
C          2.28150        1.80650       -2.68920
O          1.24730        1.05640       -2.16130
C          3.07600       -0.09450       -5.96940
H          1.30580        0.87970       -5.00700
H          4.05820        0.83460       -3.64700
H          1.86610        2.74120       -3.12180
H          2.99990        2.08650       -1.89050
F          3.57620       -1.28280       -5.46950
F          2.19430       -0.37350       -6.99760
F          4.11670        0.67070       -6.46360
