22
TSA8_9_CF3_CHF2_NH2
C          2.86440        0.55440       -1.06220
C          1.38410        0.40250       -1.48410
C          2.91390        0.99480        0.42540
H          3.36100       -0.44090       -1.09580
C          1.08580       -0.59620       -2.61860
C          3.56870        1.49450       -2.07840
C          2.79200        2.80760       -2.22540
C          1.32790        2.49750       -2.56700
O          0.71090        1.65210       -1.60560
N          4.97280        1.73770       -1.74500
H          3.55100        0.98850       -3.06670
H          2.84650        3.40980       -1.29650
H          1.23590        2.07620       -3.58720
H          0.77590        3.46020       -2.59000
F          4.21890        1.06990        0.87410
F          2.29410        2.21280        0.63580
F          2.26290        0.04720        1.19660
F         -0.28160       -0.73730       -2.75790
F          1.62730       -0.21650       -3.83130
H          1.51240       -1.58410       -2.34670
H          5.04900        2.37750       -0.92290
H          5.43360        2.21800       -2.55210
