18
TSA8_9_OMe_F_Br
C          1.39850        0.18440       -0.10720
C          0.96810       -0.71420        0.78100
O          1.58510       -0.17570       -1.39870
H          1.57970        1.20830        0.21020
F          0.76050       -0.33130        2.07070
C         -1.16640       -4.75620        0.00430
C         -1.07360       -3.47010        0.35630
C          0.09170       -2.94430        1.14320
O          0.73260       -1.98840        0.38320
Br        -2.65920       -5.37320       -1.01810
H         -0.39750       -5.47010        0.28420
H         -1.85490       -2.77640        0.05950
H          0.81320       -3.75590        1.37860
H         -0.28560       -2.52750        2.10250
C          1.93860        0.73030       -2.37180
H          2.02860        0.20190       -3.34310
H          2.91350        1.20060       -2.12350
H          1.15510        1.51330       -2.46330
