15
TSA8_9_Br_OH_I
C          1.33640        1.84230        0.23750
C          2.75200        1.27930        0.04340
Br         0.43740        0.75800        1.58700
H          0.71040        1.72930       -0.67270
O          3.41050        1.89780       -1.02250
C          1.40470        3.32350        0.66800
C          2.72620        3.65410        1.38540
C          3.27970        2.41570        2.09890
O          3.56160        1.32290        1.22050
I          1.21390        4.64230       -1.01830
H          0.53000        3.54490        1.31500
H          3.50320        3.93680        0.64130
H          2.58170        2.09050        2.89830
H          4.22840        2.71360        2.59330
H          3.55530        1.17260       -1.68130
