19
TSA8_9_CN_NH2_NH2
C          1.64530        0.04940       -0.02650
C          1.51960        1.41860        0.03990
C          1.79130       -0.88780        1.06140
H          1.54490       -0.41950       -0.99020
N          1.48400        2.12670       -1.17540
C          3.03830        2.32750        4.00160
C          2.49730        1.46240        3.13550
C          1.19630        1.75680        2.44910
O          1.44400        2.17890        1.16800
N          4.26110        2.03800        4.65670
H          2.54700        3.27400        4.20430
H          3.01830        0.53730        2.91850
H          0.65600        2.55710        2.99840
H          0.48990        0.90060        2.45710
N          1.90830       -1.66360        1.90870
H          1.64440        3.13980       -1.16110
H          1.66120        1.63260       -2.05200
H          4.75550        1.14670        4.50280
H          4.66510        2.72580        5.30810
