26
TSA8_9_CH2F_Et_CF3
C          2.07190        1.08170       -1.79580
C          0.83080        0.42440       -2.37630
C          1.83820        1.24500       -0.27810
H          2.93330        0.39110       -1.92230
C          0.85780       -0.99630       -2.89270
C          2.39640        2.45080       -2.48580
C          3.67380        3.03370       -1.91580
C          3.69760        4.20790       -1.27760
O         -0.23150        1.03060       -2.36730
C          2.56510        2.35490       -4.01890
H          1.54770        3.14670       -2.29420
H          4.60180        2.48000       -2.02940
H          2.79360        4.79300       -1.14100
H          4.63360        4.59040       -0.88370
F          2.97380        1.69650        0.36900
H          1.57600        0.26040        0.16620
H          1.00200        1.95070       -0.08260
C          1.79870       -1.19120       -4.07840
H         -0.16550       -1.29490       -3.20990
H          1.17270       -1.66830       -2.06600
H          1.48660       -0.55590       -4.93220
H          1.76300       -2.25250       -4.40310
H          2.84570       -0.95520       -3.80010
F          3.58170        1.47490       -4.34590
F          1.39200        1.94190       -4.62190
F          2.87900        3.60290       -4.53080
