26
TSA8_9_CH2F_Et_CF3
C          1.63090        0.02570       -0.19280
C          1.37920        0.30120       -1.49830
C          1.89160        1.02140        0.90470
H          1.61470       -1.01160        0.13040
C          1.03640       -0.82830       -2.44080
C          2.26880        3.29500       -4.20610
C          2.98720        2.85920       -3.16210
C          2.34620        2.53350       -1.84640
O          1.39420        1.54970       -2.04330
C          2.92110        3.59320       -5.52360
H          1.19450        3.42690       -4.10670
H          4.06100        2.72230       -3.26480
H          1.86090        3.44090       -1.42760
H          3.15450        2.19250       -1.16580
F          3.15380        0.81140        1.42680
H          1.14040        0.86210        1.70590
H          1.79230        2.07530        0.59370
C          2.03430       -0.89020       -3.59410
H          0.01920       -0.65450       -2.85220
H          1.03340       -1.81160       -1.92130
H          2.02460        0.06060       -4.16930
H          1.75870       -1.71730       -4.28140
H          3.05950       -1.07090       -3.20680
F          3.53640        2.45340       -6.00950
F          1.96660        4.01160       -6.43170
F          3.86460        4.59230       -5.36650
