21
TSA8_9_CHF2_CBr3_OH
C          2.03730       -1.81720        0.64550
C          0.77460       -1.84170        1.49300
C          1.77370       -0.98840       -0.63230
H          2.83860       -1.30270        1.22100
C          0.73870       -1.19640        2.86440
C          2.50470       -3.26520        0.33330
C          3.81800       -3.27200       -0.41140
C          3.94020       -3.81030       -1.62850
O         -0.22940       -2.38280        1.05110
O          2.67730       -3.96880        1.53580
H          1.70400       -3.75920       -0.26850
H          4.69000       -2.82630        0.05820
H          3.09150       -4.26450       -2.13060
H          4.90110       -3.79640       -2.13240
F          2.93170       -0.82460       -1.37050
F          0.81240       -1.59020       -1.42670
H          1.41550        0.02430       -0.34900
Br         1.12620        0.69800        2.71870
Br        -1.00480       -1.37660        3.70760
Br         2.04630       -2.00910        4.04240
H          2.63790       -4.93560        1.31240
