21
TSA8_9_CHF2_CBr3_OH
C          2.64300       -1.70830        0.80140
C          1.09120       -1.92530        0.78560
C          3.03430       -0.66530       -0.26800
H          2.97030       -1.29890        1.78270
C          0.34660       -1.36100        2.00940
C          3.34140       -3.07710        0.62910
C          2.78940       -3.85320       -0.57640
C          1.26240       -3.68370       -0.67680
O          0.72970       -3.28530        0.56990
O          4.73690       -2.94820        0.55820
H          3.06990       -3.66140        1.54130
H          3.25250       -3.57850       -1.54800
H          0.80750       -4.64070       -1.00390
H          0.99320       -2.94090       -1.46470
F          4.39350       -0.41420       -0.22870
F          2.68810       -1.07620       -1.54170
H          2.50940        0.29050       -0.06270
Br         0.68220        0.53580        2.24760
Br        -1.56320       -1.57930        1.75810
Br         0.85820       -2.30040        3.63050
H          5.12030       -3.81970        0.84000
