20
TSA8_9_Me_Me_F
C          1.71490        0.11300        0.05820
C          1.45390        1.28010        0.70860
C          1.90510       -1.27120        0.61100
H          1.77180        0.14220       -1.02750
C          1.21950        2.51750       -0.11560
C          4.30000        1.95590        3.71600
C          3.58440        1.20160        2.87530
C          2.11950        0.93300        3.09540
O          1.37600        1.47520        2.06030
F          5.61770        2.18000        3.47390
H          3.84390        2.40110        4.59500
H          4.07030        0.77460        2.00330
H          1.77580        1.41390        4.03610
H          1.93880       -0.13740        3.24620
H          1.73560       -1.38390        1.68200
H          2.92440       -1.63100        0.36140
H          1.16710       -1.94110        0.12170
H          1.97620        3.28320        0.15600
H          0.20750        2.91580        0.10230
H          1.29010        2.33270       -1.20900
