17
TSA8_9_Cl_CH2F_F
C          2.95260       -1.12970       -0.72500
C          1.42440       -1.43210       -0.86030
Cl         3.25230        0.62970       -0.86970
H          3.32390       -1.41060        0.28470
C          0.99770       -2.52610        0.11900
C          3.70660       -1.90530       -1.80830
C          3.19520       -1.52160       -3.20600
C          1.71290       -1.11150       -3.16330
O          1.02650       -1.84270       -2.17240
F          5.07410       -1.71120       -1.72170
H          3.49460       -2.98500       -1.65030
H          3.76070       -0.67700       -3.65620
H          1.25530       -1.28710       -4.15850
H          1.59820       -0.02140       -2.96760
F         -0.36690       -2.72870        0.02510
H          1.23590       -2.21840        1.15900
H          1.52300       -3.47800       -0.10830
