24
TSA8_9_OMe_CCl3_CH2F
C          1.51380        0.00910       -0.14860
C          1.38170        0.64350       -1.34250
O          1.47110        0.67650        1.02850
H          1.63530       -1.06670       -0.11400
C          1.39140       -0.11820       -2.66010
C          3.72840        4.14200       -0.69090
C          3.00490        3.06800       -0.34200
C          1.51570        3.00770       -0.56620
O          1.22050        1.99750       -1.46320
C          5.21280        4.17470       -0.49100
H          3.24630        5.00640       -1.13940
H          3.50200        2.20810        0.09810
H          1.15890        3.96270       -1.00750
H          0.96570        2.88230        0.38730
C          1.52040        0.06080        2.26230
H          2.39550        0.44050        2.82710
H          1.59920       -1.04570        2.17870
H          0.59580        0.30510        2.82620
Cl         2.71900        0.51230       -3.66760
Cl         1.60840       -1.89240       -2.54130
Cl        -0.14670        0.17680       -3.50850
F          5.51460        4.03870        0.85130
H          5.61750        5.14120       -0.85780
H          5.68740        3.34930       -1.06330
