24
TSA8_9_OMe_CCl3_CH2F
C          2.75770        1.30780       -0.33360
C          1.37630        1.11840       -1.07160
O          2.57390        1.33540        1.07300
H          3.48340        0.50870       -0.60810
C          1.41370        0.11830       -2.24640
C          3.35390        2.65980       -0.77410
C          2.37950        3.80700       -0.43280
C          0.92080        3.32860       -0.51010
O          0.78930        2.34490       -1.51120
C          4.75710        2.92440       -0.21060
H          3.45010        2.63010       -1.87980
H          2.53000        4.23700        0.58150
H          0.25760        4.19150       -0.72380
H          0.58300        2.91870        0.47110
C          2.19760        0.06370        1.55660
H          2.33100        0.05760        2.65780
H          2.84310       -0.75250        1.16170
H          1.12440       -0.13200        1.34670
Cl         2.47830        0.67460       -3.56650
Cl         1.95920       -1.49080       -1.70330
Cl        -0.23160       -0.07910       -2.90300
F          4.73800        2.99540        1.17210
H          5.14650        3.88470       -0.61140
H          5.44890        2.11280       -0.52040
