18
TSA8_9_CCl3_OH_H
C          1.61040       -1.43350       -0.77210
C          0.75110       -1.18910        0.45900
C          1.53960       -0.23400       -1.76740
H          2.66770       -1.47500       -0.42750
O          1.31090       -1.12780        1.68690
C          1.35840       -2.82740       -1.42640
C         -0.02910       -3.11040       -1.95040
C         -1.06670       -3.36710       -1.14740
O         -0.44960       -0.99820        0.35450
H          2.06030       -2.92920       -2.27940
H          1.62710       -3.63500       -0.71070
H         -0.18090       -3.15910       -3.02480
H         -0.95550       -3.38160       -0.06890
H         -2.04010       -3.59050       -1.57130
Cl        -0.08040        0.00060       -2.48600
Cl         1.98860        1.28210       -0.93360
Cl         2.70730       -0.44050       -3.10370
H          2.25880       -1.25840        1.82650
