21
TSA8_9_CBr3_OH_Me
C          1.56260        0.02140        0.08250
C          1.48220       -0.88120        1.08270
C          2.25450       -0.19360       -1.24420
H          1.05110        0.96920        0.23090
O          2.05490       -2.10930        1.01370
C         -0.39830       -1.85470        5.15030
C          0.27520       -2.02270        4.00460
C         -0.18620       -1.39560        2.72080
O          0.77110       -0.55660        2.18900
C          0.03580       -2.54470        6.40570
H         -1.28500       -1.22720        5.17950
H          1.15860       -2.65620        3.98160
H         -1.11790       -0.80670        2.86270
H         -0.42580       -2.22140        2.01400
Br         1.96670        1.35400       -2.37640
Br         4.16870       -0.41260       -1.01880
Br         1.50870       -1.72380       -2.18440
H          2.61210       -2.41330        0.28690
H          1.06630       -2.24030        6.67670
H          0.00060       -3.64580        6.25530
H         -0.64640       -2.27530        7.23810
