21
TSA8_9_CBr3_OH_Me
C          1.03450       -0.91850        1.86330
C          1.53300       -2.39650        1.71540
C          2.16450        0.11820        1.57180
H          0.23920       -0.72540        1.10810
O          1.87150       -2.74840        0.40260
C          0.30410       -0.80230        3.23780
C         -0.86080       -1.82700        3.26770
C         -0.63290       -3.01690        2.32250
O          0.72410       -3.40170        2.32820
C          1.22440       -1.01090        4.45510
H         -0.15370        0.20160        3.36080
H         -1.09050       -2.13620        4.31090
H         -0.94940       -2.75000        1.28900
H         -1.27990       -3.86730        2.62270
Br         1.57590        1.93260        1.94050
Br         3.81920       -0.21010        2.54510
Br         2.63850        0.09610       -0.31350
H          1.02470       -2.75990       -0.11410
H          1.97830       -0.20460        4.51890
H          1.72880       -1.99900        4.42590
H          0.63210       -0.94740        5.39300
