18
TSA8_9_CHF2_OH_F
C          1.88960       -0.08280        0.07170
C          1.20570       -0.55980        1.13060
C          2.12900       -0.82700       -1.21980
H          2.30490        0.91910        0.13060
O          1.04980        0.21290        2.23440
C         -0.19250       -4.76090        2.55760
C         -0.50820       -3.72370        1.77510
C         -0.10970       -2.31890        2.12060
O          0.66820       -1.80450        1.10430
F         -0.57310       -6.01700        2.20780
H          0.36660       -4.61800        3.47750
H         -1.07020       -3.89840        0.86220
H          0.45700       -2.29140        3.07860
H         -1.02940       -1.70440        2.23180
F          3.49000       -0.94680       -1.42810
F          1.56240       -2.08910       -1.23470
H          1.69130       -0.23910       -2.05300
H          1.41430        1.10690        2.30420
