18
TSA8_9_CHF2_OH_F
C          1.70680       -1.85170        0.68820
C          1.07200       -0.60320        1.33120
C          1.42930       -1.85160       -0.82860
H          2.81120       -1.81580        0.81640
O          1.53460       -0.38450        2.63470
C          1.15600       -3.09860        1.41320
C         -0.37360       -3.07750        1.42430
C         -0.84760       -1.74510        2.02010
O         -0.34830       -0.63670        1.28500
F          1.62010       -4.26810        0.83740
H          1.50270       -3.07810        2.46990
H         -0.77650       -3.19490        0.39680
H         -0.56730       -1.66830        3.09440
H         -1.95650       -1.72300        1.98390
F          1.96900       -0.71190       -1.39870
F          2.01230       -2.95510       -1.42520
H          0.34200       -1.86170       -1.04620
H          1.96790        0.50560        2.59970
