21
TSA8_9_CH2F_OH_CH2F
C          1.77390       -0.13920       -0.08860
C          1.48420       -1.10310       -0.99020
C          1.80150        1.33290       -0.39860
H          1.98210       -0.42590        0.93810
O          1.42910       -2.39690       -0.60050
C          2.89390       -1.83330       -5.09250
C          2.88490       -1.60330       -3.77210
C          2.20420       -0.40180       -3.17970
O          1.22790       -0.81560       -2.29070
C          3.57870       -3.03820       -5.66190
H          2.40240       -1.14310       -5.77270
H          3.38340       -2.29660       -3.09970
H          1.72760        0.22040       -3.96750
H          2.97200        0.21990       -2.67270
F          3.06700        1.83130       -0.15520
H          1.07500        1.85040        0.26250
H          1.51660        1.56060       -1.44500
H          1.59510       -2.67600        0.31150
F          4.92330       -3.01590       -5.33760
H          3.47390       -3.03940       -6.76690
H          3.11600       -3.96210       -5.25590
