25
TSA8_9_NO2_CHF2_Et
C          2.94890       -0.42440       -1.95990
C          1.83930       -1.45760       -1.83700
N          2.67660        0.68770       -1.06210
H          3.89540       -0.89860       -1.62320
C          2.13500       -2.84340       -1.33250
C          3.18300        0.09110       -3.41880
C          1.94420        0.74410       -4.00320
C          1.91220        2.03790       -4.33700
O          0.68670       -1.15690       -2.10820
C          3.65190       -1.01200       -4.39810
H          3.99770        0.84950       -3.36910
H          1.05290        0.14880       -4.17200
H          1.00770        2.46510       -4.75800
H          2.77650        2.67870       -4.19460
O          3.43050        0.93130       -0.16830
O          1.59300        1.42190       -1.20720
F          0.97280       -3.59150       -1.25340
F          3.01790       -3.47890       -2.18340
H          2.58430       -2.77730       -0.31970
C          5.02300       -1.59890       -4.05120
H          3.74910       -0.56120       -5.41110
H          2.89780       -1.82650       -4.45720
H          5.78770       -0.79360       -4.02090
H          5.31630       -2.33210       -4.83190
H          5.01420       -2.12870       -3.07970
