20
TSA8_9_I_CHF2_CF3
C          2.01650        1.42730       -1.86260
C          0.78530        0.80970       -2.48160
I          1.83340        1.19870        0.27130
H          2.91730        0.85370       -2.17390
C          0.90220       -0.39600       -3.37300
C          2.19850        2.91960       -2.25520
C          3.42110        3.48120       -1.55940
C          3.34130        4.50130       -0.69870
O         -0.31570        1.28400       -2.24250
C          2.36390        3.12600       -3.77740
H          1.29360        3.48170       -1.93080
H          4.39450        3.04430       -1.76520
H          2.38890        4.96700       -0.46490
H          4.23870        4.87760       -0.21930
F         -0.34650       -0.80190       -3.81130
F          1.68970       -0.09890       -4.46920
H          1.36910       -1.22750       -2.80510
F          3.45770        2.41980       -4.24900
F          1.23370        2.71260       -4.45870
F          2.55250        4.47080       -4.04720
