22
TSA8_9_NH2_CHF2_CH2F
C          1.71500        0.08660        0.00400
C          1.47140        1.29720        0.58450
N          1.79890       -1.17530        0.65080
H          1.84760        0.06170       -1.07460
C          1.39000        2.50730       -0.31090
C          3.65290        0.94750        4.27680
C          2.94740        0.50070        3.22740
C          1.48230        0.82050        3.05880
O          1.28130        1.56410        1.91390
C          5.11070        0.63130        4.41830
H          3.17620        1.55480        5.04130
H          3.44910       -0.09850        2.47450
H          1.13440        1.43550        3.91600
H          0.83820       -0.07790        3.07020
H          1.98680       -2.00870        0.07570
H          1.66230       -1.33270        1.64930
F          0.14290        3.08910       -0.18050
F          2.35670        3.42010        0.06870
H          1.54800        2.26020       -1.38270
F          5.29300       -0.73740        4.49640
H          5.50730        1.10210        5.34200
H          5.66970        1.02960        3.54510
