18
TSA8_9_Cl_CBr3_CN
C          1.94900       -2.00850        0.23870
C          1.50300       -2.14870        1.68990
Cl         3.36350       -0.96630       -0.12680
H          1.13750       -1.34280       -0.10930
C          1.57360       -1.01480        2.70190
C          1.86460       -3.33220       -0.62270
C          1.18380       -3.01820       -1.90460
C         -0.12840       -2.74500       -1.86320
O          0.86770       -3.14600        1.99820
C          3.13730       -4.04870       -0.83120
H          1.23040       -4.08690       -0.11990
H          1.71960       -3.00740       -2.84770
H         -0.65570       -2.78170       -0.90890
H         -0.68030       -2.49660       -2.75390
Br         0.84090        0.64110        1.99730
Br         0.53550       -1.44170        4.29600
Br         3.39950       -0.72030        3.26940
N          4.11090       -4.66210       -1.02570
