18
TSA8_9_Cl_CBr3_CN
C          2.43510       -2.06090        0.02430
C          1.17370       -1.48440        0.74400
Cl         2.69260       -1.14090       -1.49730
H          3.36160       -1.90400        0.59910
C          1.28880       -1.13620        2.25870
C          2.17930       -3.54800       -0.22580
C          0.98530       -3.69320       -1.17290
C         -0.12510       -2.68270       -0.82130
O         -0.02980       -2.23330        0.51580
C          3.34380       -4.30490       -0.70620
H          1.90920       -3.99980        0.75170
H          1.26680       -3.51570       -2.23930
H         -1.09670       -3.19570       -0.98080
H         -0.11750       -1.80080       -1.49750
Br         0.40220        0.56450        2.49630
Br         0.39360       -2.43050        3.40510
Br         3.08650       -0.90670        2.97650
N          4.24340       -4.92710       -1.08500
