20
TSA8_9_OMe_NO2_Cl
C          1.43300        0.11310        0.04410
C          1.12010       -1.03760        0.65840
O          1.47830        0.16140       -1.30820
H          1.63240        1.01430        0.62060
N          1.05220       -1.10500        2.09000
C         -0.94440       -4.43630       -1.78240
C         -0.89260       -3.30200       -1.07690
C         -0.00580       -3.15060        0.12420
O          0.88070       -2.12400       -0.12770
Cl        -1.98630       -4.55540       -3.19090
H         -0.34460       -5.29680       -1.50240
H         -1.50130       -2.45490       -1.38070
H          0.56460       -4.08320        0.32200
H         -0.65840       -2.93070        0.99480
C          1.67990        1.33230       -2.00100
H          1.68040        1.11390       -3.08870
H          2.65560        1.78260       -1.72110
H          0.85790        2.04740       -1.78180
O          0.89750       -2.15130        2.64270
O          1.25330       -0.02740        2.82010
