22
TSA8_9_Et_I_NH2
C          1.76730        0.01530       -0.25710
C          1.33250        0.58270       -1.41120
C          1.90970        0.59550        1.12960
H          2.04280       -1.03390       -0.31930
I          1.26940       -0.67890       -3.10610
C          2.77550        4.66500       -1.22680
C          2.36850        3.48670       -0.73080
C          0.94460        3.01330       -0.88520
O          0.89790        1.85860       -1.63830
N          4.11920        5.09170       -1.08700
H          2.07560        5.31050       -1.75070
H          3.08310        2.85490       -0.21590
H          0.35840        3.78320       -1.43050
H          0.42000        2.88450        0.07980
C          3.34210        0.42870        1.62750
H          1.23520        0.03040        1.80790
H          1.64330        1.65250        1.21520
H          3.62810       -0.64530        1.63100
H          3.42320        0.81680        2.66490
H          4.04820        0.98880        0.97970
H          4.81780        4.50760       -0.60260
H          4.41150        5.99690       -1.48200
