18
TSA8_9_Br_CN_CCl3
C          2.85380        0.25060        1.86130
C          1.53110        0.94780        1.40060
Br         2.85370       -1.50230        1.00890
H          3.75010        0.79730        1.49470
C          1.69760        2.06050        0.45400
C          2.84130        0.19390        3.42120
C          1.52890       -0.46990        3.86630
C          0.32300        0.18320        3.17800
O          0.70700        1.35060        2.47960
C          4.04130       -0.38320        4.22050
H          2.80750        1.26100        3.73570
H          1.52450       -1.56460        3.66050
H         -0.40070        0.44720        3.97440
H         -0.19060       -0.52970        2.49250
N          1.79550        2.93990       -0.29290
Cl         3.73960       -0.08400        5.96320
Cl         4.28450       -2.13990        4.01980
Cl         5.56020        0.45560        3.81620
