18
TSA8_9_H_CN_CHF2
C          3.04650        1.25950       -0.98410
C          1.81070        0.74610       -1.69350
H          3.14070        0.79760        0.02440
H          3.90160        0.91350       -1.59770
C          1.74330       -0.64500       -2.06020
C          3.09530        2.80350       -0.89020
C          2.16870        3.29850        0.20040
C          1.05330        3.98610       -0.05780
O          0.94820        1.50520       -2.10190
C          4.52690        3.30060       -0.62500
H          2.80420        3.21560       -1.88220
H          2.41620        3.08300        1.23720
H          0.74970        4.20520       -1.07570
H          0.42270        4.31750        0.76210
N          1.69750       -1.75620       -2.37660
F          5.00410        2.82760        0.58510
F          5.37190        2.87810       -1.63840
H          4.54240        4.41120       -0.61210
