25
TSA8_9_CBr3_OMe_OMe
C          1.39710       -0.23520       -0.22830
C          1.67360        1.04510        0.07700
C          1.42250       -1.36470        0.77750
H          1.14670       -0.47250       -1.25920
O          1.59660        1.95600       -0.93680
C          4.97360        1.78430        2.85450
C          3.63130        1.72940        2.93840
C          2.73980        2.35510        1.90520
O          1.94920        1.35690        1.37670
O          5.80360        1.20230        3.76400
H          5.43320        2.30970        2.02340
H          3.14760        1.21160        3.76010
H          3.35580        2.84970        1.13790
H          2.09430        3.10620        2.40700
Br         0.94280       -3.02670       -0.09660
Br         3.20170       -1.58180        1.52280
Br         0.15690       -1.06450        2.21910
C          1.76810        3.32200       -0.88680
H          1.45890        3.75030       -1.86220
H          2.83580        3.58440       -0.76340
H          1.13310        3.76690       -0.09190
C          5.41010        0.44310        4.84750
H          6.31000        0.09940        5.39630
H          4.84400       -0.44930        4.50240
H          4.78320        1.04850        5.53620
