25
TSA8_9_CBr3_OMe_OMe
C          2.81760        0.29520        1.12950
C          2.03830        1.52780        0.61370
C          1.86020       -0.93890        1.27790
H          3.54690       -0.01090        0.34640
O          2.88500        2.49340        0.03640
C          3.64510        0.74860        2.37090
C          2.75760        1.47100        3.39260
C          1.99240        2.59720        2.68780
O          1.20770        2.10110        1.61500
O          4.32940       -0.34390        2.95650
H          4.37500        1.49820        1.97860
H          2.06310        0.77210        3.89090
H          2.69010        3.39040        2.33710
H          1.32040        3.07920        3.42700
Br         1.07400       -1.33020       -0.45780
Br         2.81400       -2.55790        1.77560
Br         0.36120       -0.74190        2.50250
C          2.27970        2.91000       -1.16080
H          2.16840        2.06430       -1.87660
H          2.93710        3.66330       -1.64120
H          1.30360        3.40870       -0.96340
C          5.39120        0.10780        3.77010
H          6.13600        0.69260        3.18670
H          5.92300       -0.77920        4.17120
H          5.01390        0.68250        4.64380
