17
TSA8_9_I_Me_Br
C          2.99490       -1.02970       -1.32180
C          1.49370       -1.19890       -1.31490
I          3.52300        0.49760        0.10190
H          3.43490       -1.98020       -0.94780
C          0.88850       -2.52040       -0.94530
C          3.62500       -0.78610       -2.72030
C          3.27420        0.52970       -3.38070
C          2.07660        0.78550       -3.91440
O          0.75950       -0.25590       -1.56460
Br         5.56460       -0.87930       -2.55090
H          3.35340       -1.61740       -3.40680
H          4.04100        1.29390       -3.47200
H          1.28150        0.05000       -3.90570
H          1.89260        1.74130       -4.39440
H          1.22700       -3.29800       -1.66180
H         -0.22090       -2.46750       -0.97230
H          1.20770       -2.80330        0.07960
