17
TSA8_9_NH2_F_CN
C          1.64180        0.05420       -0.10150
C          1.47590        0.76880       -1.24680
N          1.72500        0.53240        1.23120
H          1.67950       -1.02980       -0.20380
F          1.57880        0.05990       -2.39870
C          2.28220        4.93700       -0.66700
C          2.06030        3.75150       -0.08600
C          0.80280        3.01600       -0.43200
O          1.19880        2.09880       -1.38370
C          3.62280        5.45280       -0.76820
H          1.48920        5.44110       -1.19990
H          2.85770        3.21940        0.42780
H          0.05040        3.69940       -0.89060
H          0.22300        2.54670        0.37640
H          2.71020        0.47200        1.50720
H          1.26020        1.34200        1.65730
N          4.71120        5.84020       -0.83040
