18
TSA8_9_CF3_Br_OH
C          1.79080        0.02100       -0.03050
C          1.07030       -1.04990       -0.40690
C          2.22760        1.14460       -0.93870
H          2.08490        0.09990        1.01240
Br         0.62020       -2.35110        0.94070
C          0.00950       -3.08580       -4.45940
C         -0.33790       -2.10060       -3.61730
C         -0.14670       -2.22590       -2.13350
O          0.67220       -1.20760       -1.69590
O         -0.16600       -2.96240       -5.79390
H          0.44040       -4.00640       -4.07750
H         -0.77010       -1.18410       -4.00820
H          0.30480       -3.20970       -1.87660
H         -1.13800       -2.14380       -1.63840
F          3.60690        1.22380       -0.92210
F          1.80960        0.97520       -2.24640
F          1.70600        2.33180       -0.46010
H         -0.54240       -2.16720       -6.19660
