19
TSA8_9_Cl_OMe_CN
C          2.41740       -1.65950       -0.11700
C          1.47940       -1.69460        1.06000
Cl         1.91270       -0.33960       -1.24370
H          3.40780       -1.34530        0.26890
O          1.98180       -1.43790        2.28580
C          2.46910       -3.09890       -0.75680
C          1.67720       -3.08780       -2.01650
C          0.35860       -3.22970       -1.97630
O          0.31710       -2.05610        0.93260
C          3.80410       -3.65620       -1.02810
H          2.05860       -3.85230       -0.04260
H          2.16730       -2.78810       -2.93990
H         -0.13860       -3.46420       -1.04180
H         -0.21820       -3.06950       -2.87310
C          1.89720       -2.34940        3.31110
H          2.31480       -1.89290        4.22920
H          2.51290       -3.23790        3.04740
H          0.84820       -2.66610        3.49240
N          4.83480       -4.15320       -1.19530
