19
TSA8_9_NH2_CF3_I
C          2.36780       -1.03460        1.51390
C          2.64270       -2.12990        0.49550
N          2.39750        0.27420        0.85490
H          1.35890       -1.16930        1.95840
C          1.63630       -3.20540        0.17090
C          3.39610       -1.07000        2.66560
C          3.08660        0.00490        3.67660
C          3.94930        0.98520        3.95870
O          3.71550       -2.14140       -0.09090
I          3.35970       -2.95450        3.69410
H          4.41930       -0.93200        2.24900
H          2.12970       -0.01830        4.19040
H          4.91440        1.04550        3.46550
H          3.68750        1.74090        4.69210
H          1.66930        0.30370        0.10440
H          3.33450        0.44310        0.42000
F          1.32260       -3.14350       -1.17400
F          2.18460       -4.44370        0.44880
F          0.47160       -3.06200        0.90340
