21
TSA8_9_CH2F_OH_CF3
C          2.70900        1.00870       -1.14680
C          1.41980        0.27230       -1.46750
C          2.92920        0.97380        0.37990
H          3.53870        0.43360       -1.61280
O          1.43700       -0.85350       -2.21490
C          2.69130        2.43070       -1.80570
C          1.62270        3.32760       -1.21110
C          0.59670        3.78680       -1.93410
O          0.35060        0.68380       -1.04330
C          4.04750        3.16850       -1.77580
H          2.47590        2.25800       -2.88580
H          1.69140        3.61470       -0.16610
H          0.48670        3.52950       -2.98280
H         -0.14570        4.42940       -1.47190
F          4.18050        1.43880        0.73000
H          2.87030       -0.07900        0.73170
H          2.14870        1.55300        0.91610
H          2.25800       -1.22120       -2.57050
F          4.39950        3.55580       -0.49700
F          5.04190        2.36140       -2.29970
F          3.96180        4.30960       -2.55490
