21
TSA8_9_CH2F_OH_CF3
C          2.67540        1.18200       -1.29840
C          1.32400        0.54480       -1.75660
C          2.66100        1.35040        0.23390
H          3.49790        0.46520       -1.52020
O          1.57100       -0.57840       -2.54820
C          2.89040        2.48670       -2.11310
C          1.69500        3.44150       -1.92450
C          0.37560        2.66180       -1.79850
O          0.46760        1.42950       -2.47690
C          4.23520        3.21120       -1.91840
H          2.87270        2.16140       -3.17830
H          1.78360        4.11040       -1.04100
H         -0.44950        3.27240       -2.21780
H          0.10330        2.48450       -0.73300
F          3.90540        1.71650        0.70910
H          2.41320        0.37350        0.70190
H          1.90840        2.09020        0.57010
H          1.26800       -1.34330       -1.99660
F          4.34240        3.75750       -0.65290
F          5.28020        2.33010       -2.12720
F          4.33730        4.23910       -2.83960
