17
TSA8_9_CH2F_Cl_Cl
C          1.70830        0.68490       -1.58290
C          1.08530       -0.59960       -1.08330
C          1.51170        1.79220       -0.52740
H          2.80200        0.50860       -1.68420
Cl         2.09020       -2.01120       -0.79520
C          1.16800        1.04110       -2.99670
C         -0.30820        1.36280       -3.00780
C         -1.18550        0.63300       -3.70390
O         -0.11430       -0.67090       -0.86510
Cl         2.05390        2.41820       -3.71110
H          1.37300        0.17040       -3.65930
H         -0.67210        2.21360       -2.44040
H         -0.86660       -0.22500       -4.28770
H         -2.23850        0.89430       -3.69130
F          2.16170        2.95670       -0.89130
H          1.93850        1.45640        0.44230
H          0.43540        2.01090       -0.36750
