17
TSA8_9_CH2F_Cl_Cl
C          1.86020       -0.03120       -0.03480
C          1.16520       -0.35230       -1.13740
C          2.12500        1.38480        0.39390
H          2.25430       -0.82670        0.59050
Cl         0.92530       -2.06260       -1.51160
C         -0.13990        1.99660       -4.94280
C         -0.48310        1.68900       -3.68750
C         -0.10530        0.37930       -3.06020
O          0.65840        0.62080       -1.93850
Cl        -0.60320        3.54160       -5.63680
H          0.42820        1.30120       -5.55370
H         -1.05240        2.40170       -3.09780
H          0.46810       -0.25290       -3.77440
H         -1.03500       -0.15680       -2.77140
F          3.48960        1.59570        0.45500
H          1.68900        1.54370        1.40180
H          1.68050        2.12980       -0.29860
