17
TSA8_9_CH2F_Cl_Cl
C          1.80320        0.87660       -1.75940
C          1.16620       -0.49910       -1.48180
C          1.55560        1.80580       -0.55480
H          2.90510        0.76370       -1.85890
Cl         1.77020       -1.80980       -2.54750
C          1.22730        1.41880       -3.08710
C         -0.30120        1.41210       -3.04250
C         -0.78150       -0.00050       -2.68400
O         -0.25380       -0.43780       -1.43940
Cl         1.84050        3.04720       -3.49070
H          1.54290        0.74330       -3.91210
H         -0.67890        2.13970       -2.29400
H         -0.53660       -0.71900       -3.49640
H         -1.88870        0.01890       -2.61070
F          2.13040        1.26290        0.58100
H          0.47380        1.95170       -0.36010
H          2.01870        2.79870       -0.73010
