18
TSA8_9_H_NH2_NO2
C          2.82160        0.19120        1.38310
C          1.81640        1.23280        0.85940
H          2.24300       -0.66470        1.79380
H          3.46120       -0.18650        0.55630
N          2.46220        2.30860        0.10840
C          3.67840        0.81430        2.49410
C          2.75030        1.39630        3.56550
C          1.77910        2.38060        2.90270
O          0.99630        1.74290        1.90380
N          4.57780       -0.16670        3.07100
H          4.27720        1.64700        2.06070
H          2.16520        0.58490        4.05230
H          2.32160        3.25850        2.48680
H          1.09720        2.77410        3.68470
H          1.72110        2.97140       -0.21400
H          2.89840        1.89360       -0.74590
O          4.14950       -1.14950        3.59880
O          5.87830        0.02380        3.01660
