22
TSA8_9_OMe_OMe_I
C          1.56320        0.22600        0.15710
C          1.51030       -0.95670       -0.45900
O          1.35650        1.36450       -0.54550
H          1.76280        0.26850        1.22540
O          1.72530       -2.08520        0.27240
C         -0.72280       -0.95350       -4.53250
C         -0.58740       -0.85280       -3.20710
C          0.31630       -1.75870       -2.42360
O          1.26560       -0.97840       -1.79710
I         -1.99910        0.36730       -5.57250
H         -0.18100       -1.70620       -5.09630
H         -1.14150       -0.08680       -2.67270
H          0.82490       -2.49290       -3.08480
H         -0.31520       -2.30040       -1.68730
C          1.33820        2.60500        0.04610
H          1.15660        3.37490       -0.73180
H          2.31360        2.81070        0.53640
H          0.52090        2.65590        0.79730
C          1.96450       -3.34650       -0.23270
H          2.86080       -3.32870       -0.88940
H          1.09330       -3.74080       -0.78630
H          2.16230       -4.03840        0.61230
