22
TSA8_9_OMe_OMe_I
C          0.78350       -0.03930       -1.50860
C          1.42450       -1.44230       -1.32010
O          1.72530        0.95150       -1.12550
H         -0.18090        0.00800       -0.94110
O          1.37660       -1.84920        0.02350
C          0.43050        0.09900       -2.99350
C         -0.56070       -1.00790       -3.40110
C         -0.40650       -2.25910       -2.51610
O          0.94680       -2.47020       -2.19120
I         -0.36920        2.02080       -3.51380
H          1.36930       -0.03850       -3.57520
H         -1.62170       -0.68860       -3.31310
H         -0.81400       -3.14220       -3.05110
H         -1.00200       -2.16090       -1.57940
C          1.20480        1.77330       -0.10330
H          0.32510        2.35120       -0.46270
H          1.98400        2.50760        0.18620
H          0.95740        1.17890        0.80410
C          2.53810       -2.59810        0.28280
H          3.46370       -2.02490        0.04770
H          2.51180       -3.56810       -0.26270
H          2.56840       -2.83420        1.36620
