22
TSA8_9_Br_Et_NO2
C          1.93170       -0.18050       -0.07300
C          1.55160       -0.67560       -1.26560
Br         2.02880        1.69930        0.29290
H          2.17600       -0.84940        0.74640
C          1.45040       -2.16780       -1.47430
C          2.42720       -0.93930       -4.78090
C          2.99900       -0.13180       -3.87070
C          2.17270        0.82650       -3.05760
O          1.23400        0.15090       -2.29650
N          3.18210       -1.85430       -5.56740
H          1.35070       -0.89510       -4.92540
H          4.07290       -0.15410       -3.71050
H          1.64580        1.51640       -3.74990
H          2.83710        1.43300       -2.40860
C          0.02710       -2.57040       -1.84360
H          1.74700       -2.72440       -0.55820
H          2.13900       -2.46630       -2.29220
H         -0.67120       -2.30420       -1.02230
H         -0.01810       -3.66790       -2.00560
H         -0.29190       -2.06100       -2.77800
O          4.36720       -1.94320       -5.44390
O          2.56510       -2.61520       -6.44450
