14
TSA8_9_Br_I_Br
C          2.97480        0.95960        1.30910
C          1.42100        0.96730        1.41510
Br         3.61030       -0.79140        0.72600
H          3.30190        1.66430        0.51530
I          0.67070        2.88450        0.82140
C          3.55420        1.36090        2.66950
C          3.08490        0.38770        3.76260
C          1.70200       -0.20160        3.43090
O          0.91240        0.73430        2.73120
Br         5.49000        1.52340        2.65880
H          3.14410        2.36520        2.91330
H          3.77860       -0.46720        3.91360
H          1.19840       -0.50070        4.37290
H          1.78910       -1.13360        2.82970
