16
TSA8_9_NH2_Cl_I
C          1.72490       -2.03050        0.14890
C          1.20320       -0.80600        0.86860
N          1.62480       -1.85660       -1.30270
H          2.80140       -2.14720        0.40390
Cl         2.26740        0.12790        1.90700
C          1.01700       -3.32330        0.61920
C         -0.47170       -3.31770        0.36520
C         -1.35490       -3.40320        1.36540
O          0.04400       -0.44640        0.73060
I          1.86550       -5.03740       -0.34930
H          1.21700       -3.44200        1.70760
H         -0.84070       -3.24450       -0.65290
H         -1.02940       -3.47870        2.39860
H         -2.41870       -3.39610        1.15290
H          2.20750       -1.03750       -1.59410
H          0.63790       -1.67470       -1.59030
