16
TSA8_9_NH2_Cl_I
C          1.83430       -2.10480        0.21500
C          1.14430       -1.05750        1.11340
N          1.70620       -1.72450       -1.19560
H          2.91990       -2.14350        0.45330
Cl         1.62720       -1.15010        2.83770
C          1.21370       -3.48790        0.48670
C         -0.30880       -3.41920        0.36250
C         -0.83080       -2.30460        1.27810
O         -0.26720       -1.04400        0.94250
I          2.01530       -5.00210       -0.79960
H          1.45400       -3.78870        1.52980
H         -0.61410       -3.21710       -0.68570
H         -0.64930       -2.55450        2.34660
H         -1.93230       -2.24360        1.15770
H          2.22360       -0.82920       -1.35420
H          0.70830       -1.56600       -1.46040
