18
TSA8_9_I_CN_CCl3
C          2.59250        0.00530        1.79680
C          2.41130        1.50720        1.71300
I          4.29190       -0.61800        0.60880
H          1.74560       -0.37080        1.17950
C          2.44060        2.18300        0.44060
C          2.45040       -0.59890        3.24910
C          1.40250       -1.69070        3.21970
C          0.13580       -1.43060        3.55420
O          2.07130        2.17110        2.69990
C          3.73980       -1.04410        4.00850
H          2.01840        0.20140        3.88620
H          1.66110       -2.68440        2.86230
H         -0.16750       -0.43090        3.86530
H         -0.62250       -2.20160        3.49010
N          2.47820        2.71310       -0.58150
Cl         3.34560       -1.42240        5.70950
Cl         4.48600       -2.52840        3.33690
Cl         4.96120        0.25710        4.03720
