18
TSA8_9_I_CN_CCl3
C          1.67990        0.05390        0.03740
C          1.49180        1.03980        0.96300
I          1.91780       -2.04140        0.15630
H          1.58640        0.32240       -1.01450
C          1.43470        2.38450        0.48450
C          2.60720       -0.96460        4.82860
C          2.38310       -0.81750        3.51380
C          1.08400       -0.26150        3.00320
O          1.33970        0.89740        2.31080
C          3.88250       -1.55630        5.37500
H          1.83940       -0.65760        5.53190
H          3.15250       -1.10930        2.80300
H          0.38910       -0.05800        3.84950
H          0.54060       -0.98330        2.36340
N          1.38400        3.47990        0.12360
Cl         3.81330       -1.59740        7.15660
Cl         4.09060       -3.22910        4.79230
Cl         5.29760       -0.58710        4.89240
