18
TSA8_9_NH2_I_NO2
C          2.03050        0.08310        0.16000
C          1.28220        0.66280        1.10850
N          2.26950       -1.31520        0.14130
H          2.46310        0.69640       -0.62470
I          0.99120        2.76920        0.99870
C         -0.30660       -0.61700        5.30900
C         -0.52630       -0.70150        3.98540
C         -0.13540        0.40500        3.04830
O          0.73230       -0.08800        2.09820
N         -0.67720       -1.65530        6.21000
H          0.16360        0.27460        5.71730
H         -1.00150       -1.58190        3.56290
H          0.34690        1.24070        3.60250
H         -1.05250        0.78540        2.54960
H          2.84240       -1.72230       -0.61140
H          1.87460       -1.94100        0.85820
O         -1.19260       -2.65840        5.81670
O         -0.45060       -1.50760        7.49680
