18
TSA8_9_NH2_I_NO2
C          1.59020       -0.64160        2.36590
C          1.15020        0.57160        1.52200
N          1.38280       -1.87930        1.60690
H          2.67670       -0.56270        2.59010
I          1.93130        2.47090        2.17620
C          0.80000       -0.63550        3.69550
C         -0.70440       -0.54120        3.41310
C         -0.96500        0.67500        2.51450
O         -0.25160        0.58640        1.28940
N          1.10590       -1.79230        4.51850
H          1.08650        0.28360        4.25560
H         -1.07760       -1.45980        2.91290
H         -0.72750        1.61940        3.04990
H         -2.05080        0.71250        2.28870
H          2.00370       -1.87100        0.76470
H          0.39670       -1.96580        1.27630
O          0.85280       -2.89680        4.14040
O          1.64730       -1.62540        5.70590
