17
TSA8_9_I_F_CCl3
C          1.77730       -0.03960       -0.15910
C          1.53750        0.45710       -1.37650
I          1.86060        1.18460        1.56670
H          1.93880       -1.10520       -0.03530
F          1.49610       -0.38060       -2.44610
C          2.26100        2.31980       -4.34180
C          2.97690        2.31910       -3.20420
C          2.34270        2.66290       -1.88370
O          1.32780        1.78220       -1.55910
C          2.81790        1.99310       -5.70930
H          1.20510        2.57400       -4.28870
H          4.03350        2.07800       -3.20200
H          1.92600        3.69110       -1.93600
H          3.11640        2.64500       -1.08540
Cl         2.57680        3.39940       -6.77210
Cl         4.55760        1.57500       -5.73030
Cl         1.91250        0.61480       -6.37790
