17
TSA8_9_I_F_CCl3
C          2.06270        0.44700       -2.31850
C          0.92990        0.92760       -1.36450
I          3.86110        0.12580       -1.16720
H          1.79550       -0.56560       -2.68800
F         -0.26040        0.35010       -1.77110
C          2.16380        1.46180       -3.48250
C          2.50080        2.85870       -2.91750
C          1.93260        3.04880       -1.50000
O          0.72260        2.34270       -1.34220
C          3.05440        1.06960       -4.69530
H          1.12800        1.52790       -3.88750
H          3.58930        3.07460       -2.86800
H          1.77040        4.13110       -1.31800
H          2.65570        2.72190       -0.72180
Cl         2.86120        2.27910       -5.99510
Cl         4.79700        0.97450       -4.32020
Cl         2.54360       -0.50350       -5.36670
