19
TSA8_9_Br_Me_NH2
C          3.00400       -0.31220        1.65070
C          1.50440       -0.13970        1.59400
Br         3.73990       -0.16130       -0.14880
H          3.42540        0.52830        2.24460
C          0.85580        1.01240        2.30290
C          3.40540       -1.62980        2.35860
C          2.98350       -2.85740        1.57530
C          2.12320       -3.75440        2.06520
O          0.81260       -0.93200        0.97180
N          4.85140       -1.65930        2.58480
H          2.91210       -1.62480        3.35810
H          3.39660       -3.01970        0.58400
H          1.68490       -3.63480        3.05060
H          1.85090       -4.62130        1.47150
H          1.08650        0.95840        3.38790
H         -0.24650        0.98920        2.16960
H          1.24670        1.96780        1.89440
H          5.36870       -1.71730        1.67800
H          5.09540       -2.49910        3.15910
