19
TSA8_9_Br_Me_NH2
C          1.98840       -0.03940        0.22070
C          1.49160       -0.31470        1.45420
Br         2.48800       -1.27270       -1.16080
H          2.11410        0.99810       -0.07360
C          1.13650        0.83040        2.36240
C          3.74420       -2.41760        3.24340
C          3.34460       -2.69950        1.99390
C          1.87970       -2.76360        1.65850
O          1.27420       -1.56040        1.96900
N          5.11860       -2.34040        3.57630
H          3.00600       -2.23880        4.02030
H          4.07670       -2.87830        1.21140
H          1.41450       -3.55790        2.27950
H          1.70310       -3.05030        0.60810
H          1.74360        0.75450        3.28850
H          0.06120        0.77120        2.63040
H          1.33020        1.82250        1.90140
H          5.84990       -2.49650        2.86720
H          5.39510       -2.11560        4.54220
