23
TSA8_9_NH2_Me_OMe
C          2.84110        0.34610       -1.63820
C          1.54180       -0.39820       -1.88620
N          2.71630        1.22840       -0.47510
H          3.63510       -0.39860       -1.39900
C          1.49860       -1.89400       -1.81320
C          3.33790        1.09670       -2.90610
C          2.36840        2.14060       -3.43540
C          2.08700        3.27630       -2.78970
O          0.51970        0.21900       -2.14810
O          3.56730        0.11230       -3.90430
H          4.29430        1.59720       -2.62370
H          1.90120        1.97510       -4.40220
H          1.39620        3.98880       -3.22860
H          2.54770        3.52090       -1.84000
H          1.86040        1.82110       -0.54880
H          2.60540        0.64120        0.38360
H          2.19180       -2.32150       -2.56750
H          0.47220       -2.26660       -2.01940
H          1.80500       -2.22790       -0.80030
C          4.47110        0.57790       -4.88660
H          5.38270        1.04380       -4.45050
H          3.96230        1.27090       -5.58990
H          4.82600       -0.29500       -5.47160
