23
TSA8_9_NH2_Me_OMe
C          1.80470       -0.15270       -0.08050
C          1.46230       -0.17940       -1.38860
N          1.90330        1.04820        0.67070
H          1.97930       -1.08780        0.44430
C          1.27800       -1.49760       -2.08770
C          4.04020        2.26840       -4.00830
C          3.06950        1.45760       -3.54580
C          2.19560        1.90770       -2.40710
O          1.23470        0.95630       -2.10280
O          4.86620        1.94990       -5.04210
H          4.18050        3.23790       -3.53820
H          2.89990        0.48290       -3.99100
H          1.67420        2.83670       -2.72160
H          2.83360        2.14130       -1.53160
H          1.64090        1.96360        0.28230
H          2.16290        0.99950        1.66630
H          1.97950       -1.56960       -2.94320
H          0.23640       -1.56690       -2.46630
H          1.45920       -2.36150       -1.41210
C          4.83230        0.78430       -5.78050
H          5.62380        0.82570       -6.55550
H          3.84750        0.68090       -6.28570
H          5.02030       -0.09100       -5.12450
