23
TSA8_9_NH2_Me_OMe
C          3.05410        0.42790       -1.41780
C          1.55810        0.03970       -1.44020
N          3.30710        1.39340       -0.33980
H          3.68130       -0.45660       -1.16400
C          1.25010       -1.23110       -2.23720
C          3.50770        0.98210       -2.79490
C          2.32610        1.61010       -3.57310
C          1.22120        2.11180       -2.64250
O          0.67060        1.10640       -1.78890
O          4.05080       -0.08630       -3.55500
H          4.29580        1.73920       -2.57180
H          1.85310        0.85040       -4.22850
H          0.40410        2.49790       -3.28810
H          1.57380        2.97770       -2.04980
H          2.75510        2.26970       -0.43520
H          3.06310        0.95680        0.57930
H          1.46110       -1.11480       -3.31700
H          0.17900       -1.49270       -2.11310
H          1.86180       -2.07200       -1.84900
C          4.83790        0.40340       -4.62090
H          5.62530        1.10850       -4.27350
H          4.20060        0.86090       -5.40780
H          5.36730       -0.45460       -5.08330
