21
TSA8_9_OMe_CF3_Br
C          1.52830        0.10620        0.04850
C          1.24640       -1.20440        0.12890
O          1.59070        0.69420       -1.17020
H          1.67840        0.70440        0.94280
C          1.14860       -1.91260        1.47250
C         -0.45730       -3.29940       -3.68250
C         -0.51510       -2.51860       -2.59930
C          0.17920       -2.87730       -1.31820
O          1.08020       -1.86970       -1.04440
Br        -1.32570       -2.76790       -5.30100
H          0.08820       -4.23760       -3.66840
H         -1.06470       -1.58260       -2.64570
H          0.71970       -3.84310       -1.41230
H         -0.59230       -2.97240       -0.53000
C          1.73560        2.05060       -1.33400
H          1.76010        2.28070       -2.41880
H          2.68260        2.39380       -0.86840
H          0.87230        2.57980       -0.87570
F         -0.11510       -2.43380        1.66900
F          2.06960       -2.94380        1.50100
F          1.42250       -1.05660        2.52620
