23
TSA8_9_CF3_Me_CF3
C          1.96520        0.29500       -2.00000
C          0.68710       -0.47340       -2.28020
C          1.82190        1.00270       -0.62840
H          2.80320       -0.43230       -1.90760
C          0.70920       -1.96860       -2.39000
C          2.29160        1.28450       -3.16920
C          3.55740        2.06430       -2.87630
C          3.55860        3.39720       -2.77160
O         -0.37180        0.12340       -2.41530
C          2.48190        0.56590       -4.52670
H          1.43910        1.99330       -3.27930
H          4.49290        1.52660       -2.74860
H          2.64560        3.97290       -2.89260
H          4.48340        3.92420       -2.56110
F          3.00980        1.60100       -0.24930
F          0.83060        1.96820       -0.67620
F          1.49260        0.07330        0.34360
H          1.38430       -2.27410       -3.21640
H         -0.30930       -2.36180       -2.59580
H          1.07600       -2.40590       -1.43810
F          3.50920       -0.35930       -4.44620
F          1.32510       -0.08280       -4.91720
F          2.79480        1.49310       -5.50620
