23
TSA8_9_CF3_Me_CF3
C          2.16130        0.10090       -2.28790
C          0.69550        0.48870       -1.88880
C          3.10530        0.37700       -1.09360
H          2.21720       -0.99650       -2.47020
C         -0.22680       -0.72610       -1.82410
C          2.51270        0.81340       -3.62790
C          2.22690        2.32600       -3.55300
C          0.95760        2.60710       -2.73450
O          0.11880        1.47250       -2.73970
C          3.90360        0.52520       -4.22100
H          1.77860        0.40090       -4.35820
H          3.06020        2.93540       -3.14250
H          0.42900        3.48250       -3.16430
H          1.20660        2.89630       -1.68710
F          4.37120       -0.11540       -1.34550
F          3.19480        1.72660       -0.81280
F          2.62500       -0.27300        0.03020
H         -0.31750       -1.18950       -2.83000
H         -1.23420       -0.41290       -1.47890
H          0.17610       -1.47430       -1.11000
F          4.11280       -0.83990       -4.29820
F          3.97360        1.05220       -5.49860
F          4.90590        1.10170       -3.46330
