14
TSA8_9_Br_Cl_Cl
C          2.12400        1.89490        0.12320
C          0.82000        1.45940        0.85680
Br         3.53680        0.57080        0.37630
H          1.94950        1.91870       -0.97430
Cl        -0.59420        1.99650       -0.09080
C          2.52650        3.27820        0.64270
C          2.75580        3.23770        2.16230
C          1.89760        2.14840        2.83150
O          0.66040        2.00240        2.17070
Cl         3.94760        3.95040       -0.20400
H          1.67010        3.95990        0.44830
H          3.81340        3.03770        2.44000
H          1.73380        2.41910        3.89470
H          2.42240        1.16860        2.85170
