20
TSA8_9_CHF2_CCl3_Br
C          2.50500       -1.56310        0.49010
C          1.28720       -1.62190        1.40780
C          2.17820       -0.70590       -0.75200
H          3.32060       -1.03000        1.02680
C          1.29210       -0.95550        2.77200
C          3.06790       -2.96120        0.09030
C          2.07810       -3.83490       -0.64490
C          2.28680       -4.24290       -1.90020
O          0.26730       -2.16850        1.01400
Br         3.70490       -3.95220        1.63240
H          3.96460       -2.79120       -0.54620
H          1.17200       -4.15590       -0.14360
H          1.55470       -4.87520       -2.39150
H          3.18010       -3.95390       -2.44580
F          3.30290       -0.55700       -1.54420
F          1.16330       -1.26770       -1.50730
H          1.85130        0.30540       -0.42880
Cl         2.54730       -1.64580        3.82840
Cl         1.60170        0.79010        2.59080
Cl        -0.27920       -1.14590        3.60310
