15
TSA8_9_Cl_F_CN
C          0.86860        0.63770        1.66250
C          2.24820        1.19590        1.85720
Cl         0.78820       -1.14870        1.74420
H          0.71230        0.88680        0.59150
F          3.32830        0.37420        1.88090
C         -0.23870        1.36150        2.48660
C         -1.41070        1.51280        1.55260
C         -1.42670        2.56410        0.72330
O          2.42660        2.40200        1.76700
C         -0.68070        0.72100        3.74570
H          0.09870        2.38560        2.75550
H         -2.14200        0.71670        1.42900
H         -0.64640        3.32240        0.79260
H         -2.17850        2.65670       -0.04410
N         -1.05340        0.25670        4.73090
