15
TSA8_9_Cl_F_CN
C          1.60890        0.03160        0.04630
C          1.72450        0.83560        1.13030
Cl         1.53570       -1.73980        0.16720
H          1.54620        0.38750       -0.96100
F          3.05820        0.88350        1.27960
C         -1.10500        2.20710        3.50000
C         -1.05970        1.67330        2.27510
C         -0.22730        2.34690        1.18930
O          1.14710        2.09070        1.34550
C         -1.57980        1.43880        4.62260
H         -0.68740        3.19210        3.67490
H         -1.51670        0.70220        2.09190
H         -0.44980        3.42350        1.19980
H         -0.50490        2.03100        0.17240
N         -1.95970        0.82720        5.52860
