21
TSA8_9_H_CF3_OMe
C          1.86880        0.01180       -0.19800
C          1.50280        0.35570       -1.45040
H          2.25800        0.72680        0.51440
H          1.77170       -1.00820        0.15850
C          0.93550       -0.66880       -2.40240
C          4.02400        4.27880       -2.33600
C          3.20700        3.23000       -2.54020
C          2.35610        2.68350       -1.43160
O          1.60620        1.63020       -1.92610
O          4.81240        4.81370       -3.30900
H          4.06500        4.72960       -1.34890
H          3.14700        2.75760       -3.51570
H          1.66890        3.47970       -1.07480
H          3.02360        2.38020       -0.60140
F         -0.32940       -0.27370       -2.79530
F          1.74710       -0.74080       -3.51910
F          0.85090       -1.92960       -1.83540
C          4.88020        4.38560       -4.62010
H          5.60870        5.01450       -5.17120
H          3.88650        4.48490       -5.10750
H          5.22070        3.32880       -4.66300
