18
TSA8_9_I_CBr3_OH
C          3.09960       -2.07790        1.14600
C          1.56830       -1.85690        0.91380
I          4.19420       -0.76440       -0.15730
H          3.40250       -1.79910        2.17760
C          0.78850       -1.44230        2.17420
C          3.44970       -3.55190        0.89690
C          2.97800       -4.00070       -0.49740
C          1.65680       -3.31110       -0.87530
O          0.93670       -2.97430        0.29110
O          4.82390       -3.77950        1.06210
H          2.87850       -4.13330        1.65770
H          3.71600       -3.79960       -1.30420
H          1.05790       -3.98320       -1.52340
H          1.84830       -2.39540       -1.48340
Br         1.49250        0.20700        2.91860
Br        -1.06510       -1.11300        1.71020
Br         0.83910       -2.82800        3.53420
H          4.93480       -4.75570        1.20480
