18
TSA8_9_NO2_I_NH2
C          0.30420       -1.49100        0.64020
C          1.78640       -1.43100        0.93910
N          0.09420       -1.54490       -0.80090
H         -0.14860       -0.54360        1.00340
I          2.59400        0.24760        1.93490
C         -0.41150       -2.65860        1.39170
C         -0.24160       -2.56020        2.89700
C         -0.66950       -1.50530        3.59820
O          2.53710       -2.32730        0.58870
N          0.05090       -3.96890        0.91830
H         -1.49980       -2.58310        1.16890
H          0.23550       -3.37570        3.43380
H         -0.52980       -1.47850        4.67400
H         -1.16070       -0.66740        3.11490
O          0.52140       -0.66970       -1.49230
O         -0.59400       -2.51970       -1.35800
H         -0.55470       -4.71620        1.32950
H          1.03240       -4.15250        1.22470
