18
TSA8_9_NO2_I_NH2
C          2.11220       -0.01280        0.12100
C          1.34640       -0.35540        1.17170
N          2.35800       -0.87140       -0.99110
H          2.56660        0.97460        0.11910
I          1.10090        1.08010        2.72600
C         -1.35910       -4.01820        2.83020
C         -0.52980       -3.39280        1.98510
C         -0.08300       -1.98550        2.24550
O          0.75260       -1.57460        1.23020
N         -1.77900       -5.34940        2.58630
H         -1.71970       -3.50520        3.71760
H         -0.17240       -3.90960        1.09770
H          0.45760       -1.95090        3.21660
H         -0.97310       -1.31990        2.28840
O          3.04880       -0.48550       -1.88460
O          1.83650       -2.07800       -1.05910
H         -2.41830       -5.81280        3.24750
H         -1.45380       -5.86820        1.75700
