18
TSA8_9_NO2_I_NH2
C          0.31630       -1.45570        0.52970
C          0.98650       -0.46020        1.49590
N          1.35440       -2.06720       -0.29560
H         -0.36910       -0.90530       -0.15180
I         -0.30880        1.05250        2.32280
C         -0.52890       -2.44180        1.38230
C          0.33440       -3.07840        2.48020
C          1.00340       -1.95930        3.28870
O          1.79400       -1.11530        2.46420
N         -1.22790       -3.44430        0.57370
H         -1.31160       -1.83780        1.89460
H          1.11420       -3.74050        2.05260
H          1.66020       -2.42630        4.05170
H          0.24510       -1.37370        3.85160
O          2.01890       -1.36980       -1.00180
O          1.57970       -3.36270       -0.29810
H         -1.90560       -3.95560        1.18460
H         -0.57090       -4.15600        0.18880
