20
TSA8_9_F_OMe_NH2
C          1.82600       -0.09990       -0.01300
C          1.84280        0.95840        0.81870
F          1.74720       -1.38590        0.41560
H          1.86410        0.06830       -1.08520
O          1.90460        2.19220        0.25900
C          4.21950       -0.72260        3.96560
C          3.41350       -0.71970        2.89420
C          1.98140       -0.25730        2.97990
O          1.79390        0.85650        2.18260
N          5.56820       -1.14420        3.86010
H          3.84850       -0.39330        4.93200
H          3.80220       -1.04730        1.93480
H          1.73820        0.03180        4.02480
H          1.27760       -1.06890        2.70360
C          1.99030        3.35420        0.99450
H          2.03270        4.22090        0.30380
H          2.91410        3.34530        1.61280
H          1.10090        3.45970        1.65180
H          5.96150       -1.45540        2.95960
H          6.17380       -1.13070        4.69300
