24
TSA8_9_CCl3_CF3_OMe
C          1.56000        1.90120       -0.25510
C          2.74190        1.82930       -1.22560
C          1.98280        1.30870        1.13510
H          0.76390        1.23160       -0.64520
C          2.87600        0.73970       -2.26050
C          0.97870        3.35870       -0.22970
C         -0.35380        3.44940        0.48830
C         -1.44250        2.81230        0.04310
O          3.63770        2.65700       -1.14310
O          1.92880        4.22520        0.37710
H          0.80340        3.65590       -1.29220
H         -0.44360        4.05950        1.38210
H         -1.41190        2.20100       -0.85170
H         -2.38100        2.90510        0.58210
Cl         0.63500        1.24370        2.30110
Cl         2.51800       -0.38490        0.93230
Cl         3.33230        2.19480        1.90020
F          1.84430       -0.18040       -2.18270
F          2.88680        1.29080       -3.52590
F          4.07170        0.07110       -2.05040
C          1.65970        5.58080        0.09330
H          1.48150        5.76590       -0.98850
H          2.55800        6.17400        0.36570
H          0.81900        5.95730        0.71470
