24
TSA8_9_CCl3_CF3_OMe
C          2.15790        0.18200        0.08610
C          2.07620        0.86820       -1.09640
C          1.72600        0.41600        1.52870
H          2.68090       -0.77060        0.01210
C          2.77540        0.24790       -2.28590
C         -0.03270        5.06730       -0.92100
C          0.55730        3.98340       -0.38280
C          0.27760        2.58970       -0.88270
O          1.45060        2.05280       -1.36190
O          0.22170        6.34020       -0.50670
H         -0.74620        4.93880       -1.72900
H          1.27300        4.10320        0.41970
H         -0.44270        2.63540       -1.72760
H         -0.20000        1.93910       -0.12970
Cl         1.10110        1.99490        2.03680
Cl         0.53390       -0.82890        1.96910
Cl         3.16500        0.15860        2.54670
F          2.24460       -1.00290       -2.54760
F          2.61820        1.03790       -3.41190
F          4.12810        0.12370       -2.02110
C          1.12490        6.70760        0.47070
H          1.11440        7.81160        0.57930
H          2.15020        6.39140        0.18310
H          0.84580        6.25270        1.44530
