20
TSA8_9_OH_NO2_Me
C          3.08620       -0.77150        1.43910
C          1.69600       -0.41020        1.93900
O          3.19100       -0.40310        0.08520
H          3.79250       -0.17010        2.06080
N          1.25980        0.87910        1.89130
C          3.44570       -2.27220        1.61540
C          2.56400       -3.15560        0.75770
C          1.77070       -4.09340        1.28440
O          0.96480       -1.27760        2.39930
C          4.91310       -2.52900        1.25060
H          3.32780       -2.53230        2.69210
H          2.57840       -3.02810       -0.32110
H          1.72700       -4.25600        2.35680
H          1.15500       -4.70800        0.63580
H          4.10430       -0.03900       -0.05210
O          0.16960        1.16190        2.29060
O          2.03380        1.83060        1.41350
H          5.57970       -1.90620        1.88450
H          5.10900       -2.29130        0.18290
H          5.16690       -3.59640        1.42640
