20
TSA8_9_OH_NO2_Me
C          1.67510        0.02780        0.17120
C          1.39910       -0.22200        1.47580
O          1.92970       -0.94910       -0.72140
H          1.68210        1.05080       -0.19270
N          1.11000        0.86860        2.35210
C          4.09860       -3.51160        2.09020
C          3.33010       -2.65960        1.39690
C          1.82580       -2.67930        1.50300
O          1.36550       -1.48000        2.01630
C          5.59120       -3.46460        1.98060
H          3.64760       -4.24870        2.74890
H          3.80260       -1.92900        0.74710
H          1.50680       -3.48630        2.19680
H          1.35350       -2.90250        0.52510
H          2.11030       -0.73740       -1.64750
O          0.86420        0.65570        3.50040
O          1.11700        2.11220        1.91850
H          5.96210       -2.46890        2.30410
H          5.90100       -3.65000        0.93060
H          6.03980       -4.24340        2.63210
