26
TSA8_9_CBr3_Et_CBr3
C          2.14570        0.29130       -2.21380
C          0.82330       -0.42900       -2.41670
C          2.11350        1.01250       -0.81390
H          2.94230       -0.48080       -2.14390
C          0.79320       -1.94200       -2.48260
C          2.46650        1.23330       -3.44840
C          3.77520        1.96460       -3.22610
C          3.84010        3.29980       -3.15130
O         -0.21290        0.21580       -2.51200
C          2.56160        0.51040       -4.84030
H          1.64970        1.98320       -3.53430
H          4.69310        1.39210       -3.12920
H          2.94980        3.91350       -3.24480
H          4.79680        3.78710       -2.99350
Br         1.53620       -0.20900        0.59160
Br         3.85880        1.60970       -0.19190
Br         0.91040        2.54280       -0.77810
C         -0.61370       -2.50510       -2.68230
H          1.20800       -2.35310       -1.53830
H          1.43500       -2.28230       -3.32220
H         -1.27220       -2.20450       -1.83940
H         -0.56870       -3.61400       -2.71960
H         -1.04570       -2.13530       -3.63640
Br         3.07540        1.77120       -6.23650
Br         3.88160       -0.92020       -4.84190
Br         0.88050       -0.21790       -5.49320
