26
TSA8_9_CBr3_Et_CBr3
C          2.42490       -0.16150       -2.59310
C          0.87620        0.04130       -2.34990
C          3.22510        0.08210       -1.26040
H          2.58770       -1.23920       -2.81520
C          0.10940       -1.29190       -2.40150
C          2.79870        0.61810       -3.91040
C          2.30240        2.07880       -3.86550
C          0.94310        2.18680       -3.16530
O          0.26760        0.95610       -3.25550
C          4.21450        0.50800       -4.54540
H          2.14310        0.12280       -4.66370
H          3.00480        2.81810       -3.43070
H          0.34770        2.99090       -3.64420
H          1.04540        2.49310       -2.10030
Br         2.39270       -0.85530        0.22960
Br         5.00780       -0.68260       -1.29650
Br         3.37500        1.93530       -0.70200
C         -1.36010       -1.11230       -2.03310
H          0.55880       -2.01580       -1.69040
H          0.18010       -1.71780       -3.42660
H         -1.45000       -0.70780       -1.00270
H         -1.87490       -2.09540       -2.07810
H         -1.86260       -0.42210       -2.74350
Br         4.14570        1.20570       -6.36040
Br         5.59400        1.54840       -3.65210
Br         4.77880       -1.34320       -4.72050
