25
TSA8_9_Me_Et_NO2
C          1.68660        0.12700        0.09760
C          1.35640       -0.01520        1.39770
C          2.01710       -1.03070       -0.80460
H          1.72090        1.11730       -0.34710
C          0.99840        1.21170        2.22290
C          4.15050       -3.08550        2.10690
C          2.82200       -3.00020        2.29820
C          2.18450       -1.76320        2.86270
O          1.29510       -1.26280        1.93340
N          4.76680       -4.24480        1.55770
H          4.78390       -2.24270        2.37200
H          2.17440       -3.83080        2.03230
H          2.96980       -1.01720        3.11020
H          1.63720       -2.02680        3.79140
H          1.95230       -2.01170       -0.29080
H          3.04840       -0.90770       -1.19440
H          1.30710       -1.04000       -1.65720
C          1.89670        1.42830        3.43630
H         -0.05260        1.11490        2.56820
H          1.06230        2.12840        1.59590
H          1.78490        0.60080        4.16540
H          1.59680        2.36510        3.95170
H          2.95750        1.52090        3.12040
O          4.11850       -5.19750        1.24190
O          6.06970       -4.26340        1.38330
