19
TSA8_9_CF3_OH_OH
C          1.49070       -1.34970        1.21440
C          0.71380       -0.04370        1.17320
C          1.42390       -2.04410       -0.16720
H          2.55980       -1.09320        1.38770
O          1.33190        1.13230        1.41250
C          1.09070       -2.28480        2.40200
C         -0.35370       -2.74550        2.42070
C         -1.36230       -1.94450        2.77940
O         -0.47070       -0.03360        0.87320
O          1.92400       -3.41680        2.37610
H          1.29130       -1.73380        3.35090
H         -0.57940       -3.78330        2.19250
H         -1.18840       -0.91430        3.07170
H         -2.37710       -2.32670        2.80720
F          2.24810       -3.15510       -0.19770
F          0.13090       -2.43990       -0.46140
F          1.85500       -1.16850       -1.14950
H          2.27060        1.18190        1.63810
H          1.88230       -3.83230        3.27750
