19
TSA8_9_CF3_OH_OH
C          1.56890       -1.66150        1.45380
C          1.04640       -0.23550        1.72310
C          1.40620       -2.01010       -0.04670
H          2.66190       -1.69600        1.65970
O          1.48270        0.26570        2.95610
C          0.85870       -2.62800        2.43380
C         -0.66200       -2.45490        2.36010
C         -1.00520       -0.97330        2.56640
O         -0.36730       -0.14830        1.60150
O          1.22440       -3.95860        2.18310
H          1.18500       -2.34640        3.46330
H         -1.06030       -2.80870        1.38840
H         -0.74860       -0.64770        3.59910
H         -2.10360       -0.85270        2.46510
F          2.13810       -1.11000       -0.80180
F          1.89470       -3.27860       -0.30150
F          0.08960       -1.94610       -0.46300
H          1.96810        1.09860        2.72910
H          0.97360       -4.48030        2.98970
