20
TSA8_9_I_Me_CHF2
C          2.13100        1.88790        1.17180
C          0.88180        2.50840        0.59420
I          1.81810       -0.23940        1.26700
H          2.98670        2.06240        0.48240
C          0.93490        3.25710       -0.70290
C          2.47160        2.47560        2.56480
C          3.70650        1.80400        3.12640
C          3.67880        1.11590        4.27240
O         -0.18250        2.40140        1.18590
C          2.71470        3.99590        2.49920
H          1.60540        2.29630        3.24150
H          4.64520        1.88250        2.58450
H          2.76190        1.01320        4.84490
H          4.58330        0.64730        4.64570
H          1.63280        4.11520       -0.61010
H         -0.07140        3.64170       -0.97460
H          1.28950        2.58120       -1.50870
F          2.98680        4.48710        3.76450
F          3.77800        4.28920        1.66230
H          1.81080        4.51630        2.11950
