18
TSA8_9_CN_CCl3_Br
C          2.73830       -0.32860       -1.18260
C          1.37060       -1.05750       -1.13560
C          2.43190        1.05420       -0.76640
H          3.46780       -0.73920       -0.45680
C          1.37570       -2.39680       -0.35680
C          3.29510       -0.44440       -2.61560
C          2.35960        0.28630       -3.55860
C          0.90090       -0.11250       -3.27710
O          0.77640       -1.24800       -2.42600
Br         5.11520        0.17530       -2.86500
H          3.30810       -1.51850       -2.90760
H          2.47000        1.38900       -3.41560
H          0.48610       -0.38000       -4.26920
H          0.30190        0.74470       -2.89660
N          2.16000        2.14160       -0.47640
Cl         2.17000       -2.26770        1.24160
Cl        -0.30930       -2.87610       -0.04580
Cl         2.17230       -3.69850       -1.28160
