17
TSA8_9_F_Cl_CBr3
C          3.26810        1.25150       -1.09760
C          1.79000        0.95400       -1.10880
F          3.88020        0.43310       -0.16390
H          3.66030        0.98610       -2.10010
Cl         1.02240        0.35640       -2.57180
C          3.56570        2.75140       -0.81590
C          3.09350        3.13080        0.57600
C          2.14200        4.04800        0.77730
O          1.11480        1.10430       -0.10280
C          5.06750        3.12350       -0.99230
H          3.00620        3.34330       -1.57610
H          3.53860        2.64430        1.43880
H          1.66850        4.55960       -0.05490
H          1.83060        4.29220        1.78740
Br         5.32250        5.03250       -0.71980
Br         6.25130        2.19740        0.24560
Br         5.68260        2.75300       -2.79950
