19
TSA8_9_OH_CF3_CN
C          1.56630       -0.02420        0.04720
C          1.35480       -0.91210        1.16770
O          1.61340       -0.31320       -1.27920
H          1.47190        1.02580        0.24430
C          1.54250       -0.43170        2.59940
C          1.21680       -5.16210        0.26020
C          1.31150       -3.93830       -0.25630
C          0.37400       -2.88820        0.17640
O          1.08220       -2.25290        1.15990
C          2.37600       -6.01290        0.17610
H          0.34650       -5.47380        0.83990
H          2.20950       -3.63910       -0.78260
H         -0.53030       -3.30680        0.65000
H         -0.03680       -2.25320       -0.63870
H          1.52190       -1.23380       -1.51590
F          1.16270       -1.45900        3.43770
F          2.82080       -0.04000        3.05410
F          0.68920        0.60740        2.72610
N          3.32810       -6.66510        0.08430
