26
TSA8_9_Et_NH2_OMe
C          1.84510       -0.09010       -0.21700
C          1.47710       -0.10330       -1.53060
C          1.94690        1.04850        0.77250
H          2.10200       -1.05130        0.22240
N          1.45960       -1.36310       -2.18830
C          2.84640        4.11240       -1.76340
C          2.57050        2.80800       -1.93850
C          1.15020        2.33120       -2.08390
O          1.11230        0.96930       -2.29920
O          4.11130        4.60080       -1.63770
H          2.02550        4.82190       -1.72130
H          3.36950        2.07490       -1.98350
H          0.71770        2.82680       -2.97860
H          0.49840        2.61160       -1.23340
C          3.36880        1.15410        1.31170
H          1.26040        0.82950        1.61790
H          1.66740        2.03090        0.38710
H          3.67570        0.20000        1.79120
H          3.42010        1.96340        2.07070
H          4.07430        1.39160        0.48830
H          1.18820       -1.41990       -3.18040
H          1.71840       -2.23430       -1.70060
C          5.27450        3.85920       -1.69100
H          6.14360        4.53650       -1.56350
H          5.36200        3.35310       -2.67620
H          5.29000        3.10750       -0.87400
