23
TSA8_9_CBr3_Et_F
C          1.83030       -0.04950        0.02730
C          1.56340       -1.24450       -0.55610
C          1.88040        1.32780       -0.60690
H          2.04250       -0.05200        1.09310
C          1.51980       -2.49740        0.28950
C          2.35230       -3.14310       -4.63990
C          2.47390       -2.88340       -3.33500
C          2.40870       -1.48670       -2.78830
O          1.35920       -1.39020       -1.88840
F          2.43050       -4.42380       -5.08580
H          2.19420       -2.34430       -5.35810
H          2.63450       -3.70520       -2.64360
H          2.26680       -0.74910       -3.60220
H          3.38240       -1.26910       -2.29230
Br         0.82520        2.52120        0.49400
Br         3.71090        1.95200       -0.57500
Br         1.18320        1.52680       -2.40870
C          0.14370       -3.15300        0.20870
H          1.73810       -2.28050        1.35790
H          2.28850       -3.20870       -0.07940
H         -0.63340       -2.46090        0.59570
H          0.13400       -4.07700        0.82510
H         -0.09910       -3.42550       -0.84080
