18
TSA8_9_OH_CHF2_Cl
C          1.99400       -0.32460       -0.01580
C          1.49500       -1.50170       -0.46160
O          2.49120        0.61590       -0.84280
H          1.99130       -0.11030        1.05000
C          0.93690       -2.48560        0.53110
C          4.24080       -2.19400       -3.70080
C          3.56080       -1.49050       -2.78870
C          2.06600       -1.31010       -2.87600
O          1.44630       -1.87540       -1.77630
Cl         5.98030       -2.38680       -3.55620
H          3.73420       -2.65940       -4.54080
H          4.10160       -1.04280       -1.96140
H          1.67670       -1.82220       -3.78210
H          1.79460       -0.23980       -2.97810
H          2.83590        1.44900       -0.49270
F         -0.39110       -2.73230        0.23780
F          1.64550       -3.66950        0.44580
H          1.00270       -2.11230        1.57590
