19
TSA8_9_F_NH2_CF3
C          1.24550       -0.15650       -0.05370
C          1.66030        1.01780       -0.53820
F          0.70620       -0.23580        1.19030
H          1.34610       -1.06550       -0.63960
N          2.24230        1.08060       -1.83810
C          4.68160        3.26460       -0.29560
C          3.63720        3.07950        0.52570
C          2.21740        3.30930        0.09380
O          1.51100        2.13060        0.23260
C          6.10420        3.01710        0.13330
H          4.51070        3.59670       -1.31530
H          3.79460        2.74050        1.54580
H          2.12960        3.70410       -0.93940
H          1.77780        4.06870        0.77330
H          2.54510        1.97160       -2.25240
H          2.33650        0.22890       -2.41190
F          6.18640        2.60080        1.45220
F          6.65510        2.04020       -0.67450
F          6.83060        4.18360       -0.01030
