21
TSA8_9_H_CH2F_OMe
C          1.88710        0.11750       -0.16430
C          1.48770        1.34610       -0.54710
H          2.18210       -0.10050        0.85510
H          1.91880       -0.70420       -0.87280
C          1.07410        1.58940       -1.97090
C          4.14920        3.42410        2.12020
C          3.40940        2.41150        1.62860
C          1.90200        2.46720        1.61110
O          1.42820        2.40490        0.31190
O          5.51060        3.41480        2.14640
H          3.64940        4.30180        2.51820
H          3.89220        1.52770        1.22830
H          1.54960        3.42210        2.05660
H          1.47280        1.64370        2.22010
F         -0.23520        2.03150       -2.00140
H          1.15530        0.67270       -2.59380
H          1.73000        2.36900       -2.41130
C          6.32320        2.40470        1.67280
H          7.38390        2.68850        1.83050
H          6.15480        2.25560        0.58470
H          6.12330        1.46050        2.22280
