17
TSA8_9_F_Cl_CHF2
C          3.35050        1.23330       -0.81970
C          1.90220        0.94050       -1.11520
F          3.80540        0.34820        0.14410
H          3.92740        1.05710       -1.75300
Cl         1.41180        0.46140       -2.73260
C          3.57670        2.69860       -0.37260
C          2.87570        2.98870        0.93780
C          1.92120        3.91860        1.04100
O          1.05890        1.01400       -0.23540
C          5.07530        3.01420       -0.22200
H          3.18130        3.36460       -1.17330
H          3.15630        2.42600        1.82400
H          1.61030        4.50390        0.18120
H          1.44200        4.09850        1.99770
F          5.65930        2.21990        0.75030
F          5.73200        2.81570       -1.42390
H          5.20280        4.07930        0.06820
