24
TSA8_9_OH_Et_CCl3
C          2.89850        2.37750        0.36650
C          1.40740        1.91330        0.21700
O          3.68240        1.31630        0.84820
H          3.30440        2.68860       -0.62270
C          0.72800        2.63950       -0.95600
C          2.93580        3.55710        1.36530
C          2.37540        3.08890        2.73080
C          1.36660        1.94000        2.56610
O          0.61040        2.11140        1.39020
C          4.30810        4.27130        1.50170
H          2.22490        4.31570        0.96980
H          3.15480        2.73240        3.43750
H          0.69790        1.91100        3.45080
H          1.87830        0.95100        2.54000
H          3.74050        0.64990        0.11470
C         -0.68690        2.11850       -1.19370
H          1.31670        2.46670       -1.88290
H          0.68620        3.73240       -0.76010
H         -0.66370        1.02940       -1.41100
H         -1.13540        2.64660       -2.06150
H         -1.32730        2.30070       -0.30480
Cl         4.16390        5.66470        2.60980
Cl         5.59220        3.19850        2.13060
Cl         4.84420        4.91200       -0.07630
