20
TSA8_9_Me_I_CHF2
C          1.35550       -0.64270        2.18250
C          1.19360        0.59150        1.32310
C          1.07600       -1.89340        1.33160
H          2.42260       -0.68660        2.49110
I          2.84530        1.85630        0.96130
C          0.49570       -0.52760        3.48280
C         -0.98980       -0.44950        3.19170
C         -1.71750        0.62610        3.50930
O          0.11700        0.86930        0.81780
C          0.75200       -1.66180        4.49490
H          0.82310        0.41080        3.98750
H         -1.48490       -1.29020        2.71520
H         -1.26650        1.48970        3.98830
H         -2.77940        0.64680        3.28760
H          1.29890       -2.82090        1.89300
H          1.73850       -1.89310        0.43920
H          0.02300       -1.91890        0.98170
F          0.31120       -2.88640        4.02630
F          2.09890       -1.74350        4.80060
H          0.19770       -1.44250        5.43290
