23
TSA8_9_OMe_NH2_CCl3
C          0.49100        1.27830       -1.32510
C          1.18260       -0.10490       -1.44660
O          1.44550        2.26470       -0.97600
H         -0.31900        1.19860       -0.56040
N          0.71450       -1.08480       -0.46930
C         -0.19660        1.65370       -2.66400
C         -0.99570        0.41850       -3.09010
C         -0.01890       -0.72990       -3.40130
O          1.24870       -0.64100       -2.75900
C         -1.09320        2.92230       -2.59690
H          0.58160        1.84010       -3.43960
H         -1.68370        0.13310       -2.26400
H          0.18920       -0.65210       -4.48820
H         -0.49560       -1.71900       -3.23130
C          1.69080        2.24080        0.41490
H          2.38560        3.06890        0.66160
H          2.18580        1.29230        0.71750
H          0.76210        2.42030        1.00130
H         -0.26450       -1.36850       -0.69590
H          1.33220       -1.92520       -0.52600
Cl        -0.14160        4.38030       -2.20270
Cl        -1.84070        3.21710       -4.19220
Cl        -2.40960        2.77410       -1.39460
