26
TSA8_9_Et_CHF2_CCl3
C          2.62810       -1.00430       -1.50240
C          1.44980       -1.94950       -1.33380
C          2.21760        0.37820       -0.92970
H          3.45090       -1.37610       -0.85380
C          1.54020       -3.11570       -0.38540
C          3.17460       -0.91800       -2.97670
C          2.13640       -0.34150       -3.92520
C          2.31270        0.82880       -4.54680
O          0.40190       -1.73960       -1.92680
C          3.74480       -2.25170       -3.54800
H          4.04920       -0.23450       -2.94300
H          1.22090       -0.89000       -4.11910
H          1.54830        1.20390       -5.21980
H          3.21030        1.41900       -4.39400
C          3.37380        1.37620       -0.83090
H          1.83560        0.22740        0.10500
H          1.39750        0.82500       -1.53280
H          4.19290        0.95460       -0.21020
H          3.01190        2.30940       -0.35000
H          3.76810        1.64810       -1.82950
F          0.34890       -3.81990       -0.36080
F          2.55810       -3.96820       -0.76650
H          1.75180       -2.73790        0.63670
Cl         2.50450       -3.51390       -3.80670
Cl         4.51400       -1.94860       -5.13300
Cl         5.01910       -2.91380       -2.48640
