26
TSA8_9_Et_CHF2_CCl3
C          1.62840       -0.14070       -0.03880
C          1.36880       -1.23510       -0.80100
C          1.83140        1.27420       -0.52510
H          1.66410       -0.26100        1.04070
C          1.10000       -2.55400       -0.12730
C          3.71360       -1.39140       -4.85280
C          2.80480       -1.70160       -3.91620
C          2.21740       -0.64650       -3.02830
O          1.31750       -1.23830       -2.16220
C          4.32950       -2.44330       -5.73840
H          4.01870       -0.35450       -4.97110
H          2.49340       -2.73530       -3.78650
H          1.68930        0.10970       -3.64800
H          3.05670       -0.16980       -2.47950
C          3.22450        1.77220       -0.15380
H          1.07290        1.91890       -0.03240
H          1.67770        1.38780       -1.61230
H          3.37280        1.72540        0.94610
H          3.34310        2.82570       -0.48420
H          4.00110        1.15350       -0.65100
F         -0.16310       -2.99620       -0.47530
F          2.03540       -3.48010       -0.55090
H          1.15380       -2.48150        0.98000
Cl         3.07260       -3.26740       -6.69810
Cl         5.49110       -1.68920       -6.85910
Cl         5.20100       -3.64790       -4.75280
