20
TSA8_9_Cl_CHF2_CF3
C          1.71980        0.07770       -0.11260
C          1.51460        0.20630       -1.44530
Cl         2.04000        1.40010        1.00710
H          1.64260       -0.90340        0.34600
C          1.16250       -1.00900       -2.25880
C          2.43200        3.14030       -4.28510
C          3.12020        2.79870       -3.18330
C          2.41560        2.46260       -1.90260
O          1.57520        1.38720       -2.12310
C          3.09040        3.47160       -5.59640
H          1.34610        3.17870       -4.24400
H          4.20500        2.75230       -3.20110
H          1.81900        3.33790       -1.56800
H          3.19540        2.23060       -1.15070
F         -0.07130       -0.82040       -2.85330
F          2.11530       -1.18820       -3.24440
H          1.11820       -1.93110       -1.64050
F          4.47010        3.38200       -5.52150
F          2.63850        2.59070       -6.56090
F          2.74520        4.75800       -5.96370
