20
TSA8_9_Cl_CHF2_CF3
C          2.78880        0.80110       -2.67450
C          1.53160        0.61860       -1.76090
Cl         4.23570        1.01140       -1.63810
H          2.97350       -0.12220       -3.26520
C          0.62940       -0.51390       -2.25840
C          2.55400        2.01000       -3.60580
C          2.28000        3.27760       -2.76880
C          1.56510        2.93070       -1.45210
O          0.73920        1.80150       -1.62680
C          3.65990        2.23880       -4.65150
H          1.62150        1.78630       -4.16990
H          3.19820        3.84810       -2.50600
H          0.96400        3.80160       -1.11920
H          2.29600        2.73810       -0.63370
F         -0.42600       -0.68470       -1.38170
F          0.13160       -0.22590       -3.51660
H          1.20550       -1.46180       -2.30170
F          4.86560        2.54870       -4.04840
F          3.82200        1.10100       -5.42120
F          3.30080        3.28460       -5.48410
