17
TSA8_9_I_CCl3_F
C          2.94740       -2.20940       -0.26380
C          1.41300       -1.94070       -0.41500
I          4.01960       -0.37750       -0.59380
H          3.20990       -2.52600        0.76790
C          0.58090       -2.33800        0.81750
C          3.37620       -3.30020       -1.25200
C          2.97190       -2.93790       -2.68820
C          1.64100       -2.16820       -2.70350
O          0.85850       -2.53530       -1.58810
F          4.73310       -3.56030       -1.17530
H          2.82700       -4.22600       -0.97540
H          3.73120       -2.32460       -3.22010
H          1.09890       -2.38020       -3.64790
H          1.81990       -1.06700       -2.69780
Cl         0.68020       -4.09280        1.12840
Cl         1.13240       -1.45310        2.26540
Cl        -1.12760       -1.90800        0.54750
