21
TSA8_9_CH2F_CBr3_CN
C          1.62510       -0.07660        0.08520
C          1.49110       -1.12820        0.97720
C          1.67460        0.01340       -1.43870
H          1.70180        0.92110        0.50040
C          1.59310       -0.84930        2.49460
C          1.17230       -4.30790       -2.45260
C          1.46150       -3.89630       -1.21510
C          0.58290       -2.95740       -0.44020
O          1.27210       -2.44250        0.64290
C          2.13430       -5.14000       -3.13320
H          0.26530       -3.98020       -2.96770
H          2.39180       -4.22750       -0.76700
H         -0.31990       -3.50110       -0.08690
H          0.19900       -2.15230       -1.06590
F          2.95680        0.42140       -1.72870
H          0.99400        0.80450       -1.85350
H          1.48630       -0.89260       -2.03770
Br         0.65220        0.75910        3.04650
Br         0.85290       -2.31420        3.54190
Br         3.42600       -0.67140        3.12050
N          2.93330       -5.80540       -3.64140
