21
TSA8_9_OMe_Br_Me
C          0.56900       -1.48510       -0.74680
C          1.39690       -1.06450        0.44620
O          1.37170       -1.47160       -1.91680
H         -0.30980       -0.80440       -0.85190
Br         0.88400        0.45850        1.48240
C          0.00680       -2.91310       -0.53970
C         -0.86680       -2.96490        0.69530
C         -0.57940       -3.75500        1.73410
O          2.40030       -1.68750        0.75440
C         -0.82330       -3.36170       -1.74950
H          0.86190       -3.61980       -0.43600
H         -1.75410       -2.33910        0.74070
H          0.29820       -4.39380        1.72930
H         -1.22890       -3.76430        2.60330
C          1.53520       -0.15260       -2.39470
H          2.06990       -0.19850       -3.36580
H          2.16170        0.44820       -1.70140
H          0.55820        0.34180       -2.59460
H         -0.20170       -3.36780       -2.66960
H         -1.68900       -2.68260       -1.90770
H         -1.20350       -4.39340       -1.58800
