21
TSA8_9_OMe_Br_Me
C          0.44620       -1.55340       -0.83970
C          0.98650       -1.12380        0.55080
O          1.45220       -1.45200       -1.83160
H         -0.42980       -0.90160       -1.07360
Br        -0.20110        0.06920        1.53900
C         -0.04920       -3.01780       -0.79830
C         -0.73450       -3.24790        0.54290
C          0.34840       -3.12200        1.64040
O          1.41200       -2.21400        1.34550
C         -0.97210       -3.33980       -1.97540
H          0.82250       -3.71130       -0.84440
H         -1.53160       -2.48200        0.66900
H          0.81820       -4.12500        1.71490
H         -0.11240       -2.89960        2.62610
C          1.61380       -0.10800       -2.23260
H          2.36760       -0.07440       -3.04530
H          2.00200        0.51640       -1.39840
H          0.67270        0.31210       -2.65230
H         -0.43390       -3.18840       -2.93520
H         -1.87160       -2.68780       -1.95990
H         -1.29970       -4.40020       -1.92020
