18
TSA8_9_CN_Cl_CF3
C          1.63780       -0.05580       -0.04410
C          1.43830       -0.78990       -1.17120
C          1.82200        1.37090        0.06460
H          1.58430       -0.57750        0.90250
Cl         1.39860       -2.52060       -0.97870
C          3.43500        1.59740       -4.10510
C          2.80840        1.29490       -2.96710
C          1.35950        0.92810       -2.94790
O          1.24240       -0.34020       -2.44410
C          4.87290        2.03650       -4.12280
H          2.90190        1.55380       -5.04870
H          3.36930        1.31650       -2.03920
H          0.92320        0.94970       -3.97760
H          0.78610        1.65290       -2.34140
N          1.96940        2.51590        0.14370
F          5.70710        1.06650       -3.59650
F          5.25750        2.28810       -5.42450
F          5.01280        3.20560       -3.39620
