18
TSA8_9_CN_Cl_CF3
C          2.89820        0.29820       -1.52750
C          1.50360       -0.38240       -1.67820
C          2.66190        1.33570       -0.50190
H          3.63630       -0.41750       -1.10230
Cl         1.57340       -2.14270       -1.39830
C          3.30470        0.82620       -2.95230
C          2.24470        1.84010       -3.36590
C          0.84270        1.25450       -3.20180
O          0.87530       -0.13580       -2.93250
C          4.68650        1.41190       -3.33130
H          3.23760       -0.06410       -3.61720
H          2.34460        2.76600       -2.74730
H          0.35080        1.41430       -4.18070
H          0.25430        1.79840       -2.43040
N          2.45210        2.16270        0.28060
F          5.70180        0.49910       -3.11680
F          4.66000        1.68550       -4.69630
F          4.96990        2.58940       -2.66670
