17
TSA8_9_Br_CHF2_Br
C          2.99180       -1.46070       -0.66220
C          1.49560       -1.66030       -0.58530
Br         3.40520        0.39120       -0.21630
H          3.44960       -2.09530        0.12800
C          0.91970       -2.65740        0.38180
C          3.65100       -1.89710       -1.99910
C          3.28400       -1.07310       -3.21470
C          2.09420       -1.14380       -3.81810
O          0.74420       -0.98240       -1.26890
Br         5.58670       -1.82200       -1.78290
H          3.42050       -2.96530       -2.20340
H          4.03370       -0.42160       -3.65440
H          1.31610       -1.81020       -3.46510
H          1.89990       -0.54240       -4.70010
F         -0.46300       -2.66120        0.31860
F          1.38800       -3.92260        0.07870
H          1.22940       -2.39140        1.41420
