20
TSA8_9_Br_CHF2_CH2F
C          2.09520        2.16920        0.44100
C          0.94560        2.69460       -0.38650
Br         1.55500        0.45280        1.18890
H          2.97310        1.98490       -0.21700
C          1.10510        2.90680       -1.86600
C          2.50090        3.15840        1.56290
C          3.63400        2.57650        2.37950
C          3.51240        2.33580        3.68890
O         -0.12540        2.93980        0.15060
C          2.95250        4.51150        0.98880
H          1.61570        3.33700        2.21480
H          4.57610        2.34770        1.88850
H          2.58850        2.55040        4.21700
H          4.34660        1.91800        4.24310
F         -0.07280        3.37450       -2.42230
F          2.11070        3.82530       -2.10280
H          1.37080        1.94350       -2.34880
F          3.29320        5.37540        2.01530
H          2.13390        4.98060        0.40430
H          3.83180        4.37850        0.32230
