20
TSA8_9_Br_CHF2_CH2F
C          2.87880        2.40460        0.16400
C          1.44030        1.79830        0.26970
Br         4.18170        1.05810        0.71230
H          3.12630        2.63090       -0.89660
C          0.58590        2.15940       -0.94870
C          2.93660        3.68520        1.02020
C          2.57960        3.36380        2.48500
C          1.58270        2.19500        2.56960
O          0.72960        2.19250        1.44680
C          4.25020        4.47080        0.90510
H          2.13630        4.35180        0.63080
H          3.45740        3.09660        3.11280
H          0.99080        2.28440        3.50370
H          2.10940        1.21700        2.64110
F         -0.64420        1.53560       -0.85340
F          0.39410        3.52760       -1.02530
H          1.08470        1.80910       -1.87680
F          5.32250        3.74980        1.39840
H          4.16840        5.41760        1.48030
H          4.44410        4.72650       -0.15820
