20
TSA8_9_Br_Me_CF3
C          1.88160        0.01360       -0.22570
C          1.46230        0.72060       -1.28970
Br         2.17310        0.81340        1.49240
H          2.04860       -1.05620       -0.30560
C          1.20520        0.03990       -2.60570
C          2.12040        3.41230       -3.67490
C          2.86030        3.08050       -2.60310
C          2.24370        3.00500       -1.23360
O          1.23830        2.05610       -1.18960
C          2.68280        3.51030       -5.06710
H          1.06270        3.62530       -3.54490
H          3.92030        2.86800       -2.70420
H          1.81240        3.99820       -0.98630
H          3.02600        2.77310       -0.48050
H          1.86060        0.47680       -3.38630
H          0.14520        0.19180       -2.89690
H          1.40430       -1.05210       -2.55600
F          4.03470        3.21240       -5.10260
F          2.00960        2.62670       -5.88860
F          2.49660        4.79570       -5.53910
