20
TSA8_9_Br_Me_CF3
C          2.50990        1.03150       -2.45160
C          1.25020        0.92120       -1.53040
Br         4.12760        0.88560       -1.36660
H          2.55400        0.16160       -3.14260
C          0.15480        0.09720       -2.20710
C          2.42300        2.35450       -3.23840
C          2.36080        3.54530       -2.25950
C          1.67330        3.15190       -0.94030
O          0.67660        2.18160       -1.16880
C          3.51400        2.54230       -4.30780
H          1.45000        2.32560       -3.77800
H          3.35780        3.96260       -1.99870
H          1.22950        4.05670       -0.47670
H          2.40570        2.76460       -0.19750
H         -0.18500        0.58990       -3.14290
H         -0.71120       -0.00510       -1.52020
H          0.53130       -0.92010       -2.44430
F          4.77140        2.61800       -3.73640
F          3.48800        1.48240       -5.19670
F          3.27750        3.71060       -5.01050
