20
TSA8_9_Cl_Br_Et
C          3.17230        0.12300       -1.66000
C          1.69160        0.01530       -1.39560
Cl         4.00980        0.16410       -0.07700
H          3.48150       -0.80220       -2.19220
Br         0.71950       -1.51890       -1.99460
C          3.49310        1.33730       -2.57940
C          3.22380        2.65980       -1.88770
C          2.29680        3.51570       -2.32940
O          1.09780        0.89540       -0.79190
C          4.91930        1.31480       -3.19080
H          2.81740        1.24100       -3.46100
H          3.79650        2.92760       -1.00530
H          1.69740        3.29390       -3.20690
H          2.13270        4.45270       -1.80730
C          6.09160        1.45120       -2.21630
H          4.98940        2.15660       -3.91480
H          5.05130        0.37190       -3.76500
H          6.02050        2.39250       -1.63400
H          7.03940        1.47490       -2.79450
H          6.15310        0.58390       -1.53360
