21
TSA8_9_F_OMe_CF3
C          3.26290        1.27970        0.48350
C          2.03430        1.66100       -0.35670
F          2.84120        0.50840        1.55320
H          3.96380        0.67300       -0.12880
O          2.38390        2.29930       -1.56260
C          3.94940        2.56560        0.97720
C          2.91300        3.41920        1.72120
C          1.70830        3.66440        0.80130
O          1.10990        2.44330        0.38760
C          5.17880        2.27610        1.85420
H          4.30030        3.14010        0.09030
H          2.56880        2.89680        2.64110
H          1.99500        4.28450       -0.07520
H          0.95440        4.25050        1.36850
C          2.36010        1.33100       -2.58270
H          2.38650        1.85510       -3.55990
H          1.42520        0.72550       -2.57150
H          3.26180        0.68410       -2.52260
F          4.82250        1.57860        2.99560
F          6.09950        1.52930        1.14080
F          5.77420        3.46810        2.22790
