17
TSA8_9_Br_CF3_H
C          2.89020       -1.00980       -1.24700
C          1.58560       -1.74070       -1.02920
Br         2.61670        0.90230       -1.02470
H          3.60430       -1.29950       -0.44550
C          1.43750       -2.71370        0.10740
C          3.55570       -1.39010       -2.59000
C          2.71490       -1.17080       -3.82740
C          2.35620        0.03520       -4.27690
O          0.63970       -1.53450       -1.77610
H          3.78210       -2.47770       -2.54020
H          4.52230       -0.85280       -2.69880
H          2.40310       -2.04370       -4.39400
H          1.75850        0.11710       -5.17890
H          2.65620        0.94570       -3.77580
F          0.16520       -3.25870        0.11930
F          2.36060       -3.73320       -0.03370
F          1.65710       -2.06200        1.30680
