23
TSA8_9_CCl3_Et_F
C          1.89430        0.74380       -1.55270
C          0.59060        0.12380       -2.04050
C          1.75450        1.22690       -0.07260
H          2.66210       -0.05720       -1.56380
C          0.52310       -1.34370       -2.39900
C          2.33420        1.85090       -2.55530
C          3.77510        2.24400       -2.36540
C          4.14980        3.48950       -2.06140
O         -0.41830        0.80570       -2.13610
F          2.22550        1.37700       -3.85240
H          1.65640        2.72650       -2.46620
H          4.53810        1.48080       -2.48920
H          3.41970        4.28030       -1.92560
H          5.20390        3.71680       -1.93980
Cl         0.58580        2.56970        0.10550
Cl         1.20060       -0.11870        0.96520
Cl         3.30990        1.76280        0.62130
C          1.45050       -1.69770       -3.56170
H         -0.51650       -1.61120       -2.68920
H          0.80170       -1.94760       -1.50920
H          1.17050       -1.11910       -4.46690
H          1.36090       -2.78050       -3.78930
H          2.51130       -1.48960       -3.31200
