23
TSA8_9_CCl3_Et_F
C          2.61720        0.53980       -1.65910
C          1.11780        0.79560       -2.04650
C          2.84820        0.72580       -0.12380
H          2.89390       -0.51430       -1.87640
C          0.28600       -0.47390       -2.29510
C          3.50540        1.40470       -2.59120
C          3.04310        2.86270       -2.67580
C          1.50710        2.94660       -2.72710
O          0.95930        1.70730       -3.12620
F          4.85600        1.32220       -2.30890
H          3.36220        0.99370       -3.61500
H          3.43320        3.52390       -1.87410
H          1.20970        3.74510       -3.43740
H          1.08480        3.25410       -1.74300
Cl         2.49020        2.36860        0.47270
Cl         1.81810       -0.39800        0.80420
Cl         4.53050        0.33620        0.32950
C          0.68650       -1.19850       -3.58240
H         -0.78160       -0.17860       -2.37950
H          0.37950       -1.16980       -1.43700
H          0.55790       -0.53000       -4.45990
H          0.03800       -2.08870       -3.72190
H          1.74050       -1.54060       -3.54220
