19
TSA8_9_NH2_CN_NH2
C          1.87650       -0.32020       -1.82950
C          2.55270       -1.50940       -1.17660
N          2.46590        0.96480       -1.43070
H          0.84880       -0.36930       -1.40150
C          1.90040       -2.07760       -0.01690
C          1.66520       -0.40460       -3.36800
C          0.44010        0.42190       -3.67850
C         -0.76700       -0.12760       -3.50090
O          3.36350       -2.18400       -1.78870
N          2.82500        0.03100       -4.15900
H          1.44480       -1.46300       -3.63640
H          0.52050        1.48110       -3.90640
H         -0.85230       -1.17380       -3.21060
H         -1.66860        0.45810       -3.61300
H          3.37160        0.83260       -0.92300
H          1.80940        1.45370       -0.77890
N          1.37100       -2.49530        0.92350
H          2.93050        1.07250       -4.11400
H          2.65050       -0.20410       -5.16620
