19
TSA8_9_NH2_CN_NH2
C          1.62860       -0.11880        0.04200
C          1.55180       -1.33010       -0.54870
N          1.78280        1.08930       -0.68560
H          1.49430       -0.04890        1.11550
C          1.32930       -2.48390        0.29090
C          1.48920       -0.39480       -5.07310
C          1.52290       -0.13460       -3.76240
C          0.73430       -0.93500       -2.78680
O          1.58920       -1.52980       -1.90020
N          2.26040        0.37640       -5.97290
H          0.87500       -1.20450       -5.45960
H          2.13380        0.67870       -3.38520
H          0.15300       -1.73970       -3.28530
H          0.01330       -0.27180       -2.28110
H          2.74940        1.39150       -0.89160
H          1.22660        1.88530       -0.34800
N          1.15210       -3.40420        0.95660
H          2.85750        1.14410       -5.63130
H          2.24810        0.15320       -6.97710
