19
TSA8_9_NH2_CN_NH2
C          2.27080       -0.40240       -1.91880
C          1.15170       -1.17850       -1.14710
N          2.19490        1.03500       -1.61160
H          3.28830       -0.78300       -1.66700
C          1.64040       -1.99960       -0.03270
C          2.04850       -0.62860       -3.43320
C          0.58990       -0.29870       -3.77910
C         -0.35750       -1.10290       -2.86370
O          0.35340       -1.97230       -2.00140
N          2.98490        0.12150       -4.27090
H          2.21390       -1.71200       -3.63510
H          0.39950        0.78910       -3.63480
H         -1.00610       -1.71600       -3.52050
H         -1.03050       -0.43330       -2.28030
H          3.01370        1.34230       -1.04020
H          1.31150        1.28390       -1.10600
N          1.99770       -2.65400        0.85280
H          2.76340        1.14280       -4.24480
H          2.86750       -0.20170       -5.26040
