24
TSA8_9_CF3_OH_Et
C          2.28550        1.78620        0.18810
C          1.44800        0.87840       -0.70830
C          2.29230        1.11730        1.59660
H          3.31560        1.79420       -0.23040
O          2.00260        0.26510       -1.77640
C          1.73780        3.26620        0.16950
C          1.18630        3.61120       -1.20680
C         -0.09820        3.93040       -1.39870
O          0.26180        0.70340       -0.47380
C          2.78240        4.38760        0.45410
H          0.90400        3.33530        0.90360
H          1.85550        3.59760       -2.06310
H         -0.45460        4.16970       -2.39510
H         -0.80200        3.95580       -0.57230
F          3.09580        1.75390        2.50880
F          1.00980        1.07830        2.11730
F          2.75700       -0.18260        1.48350
H          2.93600        0.37570       -2.00450
C          3.51520        4.36920        1.78630
H          2.23850        5.35840        0.40970
H          3.55470        4.39630       -0.34770
H          2.79670        4.32850        2.63160
H          4.11720        5.29810        1.87880
H          4.24330        3.53760        1.81380
