18
TSA8_9_CN_H_CCl3
C          2.96180        1.48680       -0.50900
C          1.89850        1.05110       -1.50660
C          2.49270        0.91340        0.79400
H          3.89010        0.96150       -0.79600
H          1.85040        0.01110       -1.82120
C          3.15380        3.09200       -0.50840
C          2.32300        3.57240        0.63620
C          1.03840        3.83520        0.50840
O          1.00060        1.79720       -1.87390
C          4.51930        3.89500       -0.46470
H          2.75700        3.41390       -1.49880
H          2.75350        3.50340        1.63290
H          0.56880        3.81560       -0.46430
H          0.46950        3.99400        1.41130
N          2.04950        0.51660        1.79140
Cl         4.16420        5.61020       -0.88870
Cl         5.33950        3.96030        1.12630
Cl         5.72350        3.35890       -1.66320
