18
TSA8_9_CN_H_CCl3
C          1.69860        0.03310       -0.08930
C          1.49840        0.75350       -1.21060
C          1.83830        0.53150        1.25820
H          1.70380       -1.04680       -0.19720
H          1.42520        0.18820       -2.13180
C          3.31020        4.69050       -0.55140
C          2.86530        3.46440       -0.23270
C          1.42010        3.09250       -0.37010
O          1.31460        2.10090       -1.32050
C          4.76460        5.06880       -0.44010
H          2.60320        5.43480       -0.90870
H          3.55810        2.70360        0.11010
H          0.81970        3.96790       -0.71210
H          0.96660        2.78810        0.59320
N          1.95360        0.87470        2.35970
Cl         4.98280        6.76930       -0.92340
Cl         5.33400        4.88720        1.23930
Cl         5.76170        4.05010       -1.51130
