22
TSA8_9_CCl3_OH_OMe
C          1.42250       -0.24260        2.08730
C          2.81480        0.11180        2.63210
C          1.43150       -1.25110        0.87800
H          1.01600        0.70860        1.67840
O          3.96000       -0.50120        2.25360
C          0.53300       -0.66650        3.30820
C         -0.93410       -0.83500        2.97920
C         -1.68110        0.17980        2.53110
O          2.89860        1.00590        3.46040
O          1.04940       -1.86640        3.86360
H          0.58890        0.17190        4.04510
H         -1.40410       -1.80330        3.12660
H         -1.25560        1.16680        2.38100
H         -2.73250        0.02310        2.31350
Cl         2.00070       -2.89220        1.30910
Cl        -0.17990       -1.44480        0.13390
Cl         2.45200       -0.61800       -0.44860
H          4.02050       -1.22940        1.62770
C          0.76040       -1.95240        5.24370
H          1.17090       -1.08600        5.80810
H          1.26030       -2.85620        5.64770
H         -0.33110       -2.07210        5.41630
