23
TSA8_9_Et_F_CHF2
C          2.60330       -0.42440       -1.73080
C          1.14400       -0.86950       -1.95880
C          2.59680        0.79550       -0.77450
H          3.13360       -1.23680       -1.18590
F          1.06470       -2.09810       -2.59370
C          3.29330       -0.13110       -3.10740
C          2.25970        0.00990       -4.24250
C          1.01760        0.74710       -3.72640
O          0.35250        0.10010       -2.63960
C          4.33280       -1.20180       -3.48220
H          3.83940        0.83140       -3.04830
H          1.92060       -0.98480       -4.60480
H          0.30310        0.83150       -4.57160
H          1.30140        1.77670       -3.42330
C          3.99540        1.19660       -0.29590
H          2.01350        0.52560        0.13390
H          2.10570        1.67160       -1.24600
H          4.48350        0.34270        0.21960
H          3.90840        2.03850        0.42330
H          4.64230        1.53100       -1.13040
F          5.32880       -1.25300       -2.52270
F          3.74300       -2.44970       -3.58690
H          4.80220       -0.94480       -4.45600
