17
TSA8_9_F_CBr3_H
C          2.03440        0.16260       -0.24140
C          1.59920        1.33230       -0.76840
F          2.29680        0.01050        1.08230
H          2.16370       -0.72150       -0.85010
C          1.24980        1.47370       -2.24150
C          2.12130        5.18320        1.88030
C          2.53570        4.22700        1.04370
C          2.06640        2.80640        1.16350
O          1.42220        2.45370       -0.00780
H          2.48200        6.19990        1.76260
H          1.42520        4.96510        2.68440
H          3.23350        4.48280        0.25160
H          1.35860        2.69280        2.01270
H          2.96560        2.18600        1.34920
Br         1.46930       -0.11920       -3.34560
Br        -0.60010        2.02790       -2.40110
Br         2.36420        2.85980       -3.01000
