15
TSA8_9_I_CN_H
C          1.70700       -0.02140        0.08550
C          1.59320       -0.96160        1.04990
I          1.83460       -0.51960       -1.97310
H          1.52550        1.03940        0.27410
C          1.32420       -0.61210        2.42950
C         -0.06310       -5.31080        0.77990
C          0.25080       -4.17850        0.14840
C          0.29910       -2.86820        0.85240
O          1.53720       -2.26260        0.69640
H         -0.08870       -6.24160        0.22530
H         -0.29470       -5.32290        1.84110
H          0.45960       -4.19750       -0.91450
H          0.02540       -2.96380        1.92890
H         -0.47160       -2.22900        0.36890
N          1.10950       -0.32910        3.53100
