22
TSA8_9_OMe_OMe_Br
C          0.74410        0.04070       -1.39080
C          1.68390       -1.11490       -1.14760
O          1.50590        1.21400       -1.62860
H          0.05960        0.13850       -0.51010
O          1.58840       -1.81860        0.00850
C         -0.14830       -0.23030       -2.61630
C         -0.99020       -1.46480       -2.40780
C         -0.89840       -2.52860       -3.21070
O          2.50750       -1.41940       -2.00020
Br        -1.34170        1.27130       -2.92150
H          0.49530       -0.33790       -3.51840
H         -1.68920       -1.49060       -1.57670
H         -0.20930       -2.54280       -4.04930
H         -1.51810       -3.40030       -3.02700
C          1.52970        2.03740       -0.48360
H          2.17390        2.91510       -0.69650
H          1.97200        1.50430        0.38680
H          0.51290        2.42550       -0.25290
C          2.34900       -2.93320        0.29030
H          3.42880       -2.67300        0.28770
H          2.15260       -3.72740       -0.46200
H          2.07400       -3.31820        1.29360
