22
TSA8_9_OMe_OMe_Br
C          0.78850       -0.05640       -1.48910
C          1.42380       -1.46740       -1.34040
O          1.73620        0.91450       -1.07570
H         -0.17170       -0.02460       -0.91480
O          1.38110       -1.91090       -0.00760
C          0.43680        0.12350       -2.97110
C         -0.56140       -0.96760       -3.40640
C         -0.41280       -2.24370       -2.55650
O          0.93970       -2.47010       -2.23700
Br        -0.28440        1.88000       -3.38520
H          1.37380       -0.00480       -3.55560
H         -1.62100       -0.64590       -3.30920
H         -0.82480       -3.10880       -3.11380
H         -1.00760       -2.16720       -1.61600
C          1.18210        1.78360       -0.11120
H          0.34940        2.38220       -0.54070
H          1.96700        2.49820        0.21020
H          0.85480        1.22690        0.79390
C          2.54790       -2.65940        0.22680
H          3.46870       -2.06950        0.01670
H          2.53260       -3.60880       -0.35510
H          2.57670       -2.93630        1.30060
