22
TSA8_9_CHF2_NO2_CHF2
C          2.08610        2.01420       -1.27360
C          0.68310        1.98560       -0.57260
C          3.06410        1.05170       -0.55730
H          1.97820        1.59460       -2.29950
N         -0.34750        1.62330       -1.51940
C          2.53460        3.49530       -1.39620
C          2.53110        4.18870       -0.02100
C          1.37290        3.68040        0.85390
O          0.31570        3.21830        0.04520
C          3.83940        3.75900       -2.16370
H          1.72970        3.98460       -1.99110
H          3.47750        4.08190        0.55130
H          1.02470        4.50480        1.50970
H          1.69500        2.87410        1.54840
F          4.22790        0.89670       -1.28550
F          3.38490        1.46260        0.72110
H          2.59220        0.04830       -0.49000
O         -0.60000        2.33530       -2.44450
O         -1.03080        0.51350       -1.34610
F          4.94460        3.29990       -1.47190
F          3.79070        3.16210       -3.41110
H          3.96020        4.85430       -2.30480
