20
TSA8_9_CF3_Me_Cl
C          1.66360       -1.07810       -1.42070
C          0.85650       -1.36140       -0.16720
C          1.62530        0.43640       -1.74450
H          2.72580       -1.33300       -1.20570
C          1.52720       -1.91340        1.05420
C          1.21600       -2.02310       -2.57530
C         -0.21190       -1.81470       -3.02260
C         -1.13550       -2.77390       -2.90100
O         -0.34630       -1.14170       -0.14230
Cl         2.28490       -1.88260       -3.99970
H          1.34190       -3.06560       -2.20520
H         -0.50350       -0.86770       -3.46330
H         -0.89130       -3.73980       -2.46930
H         -2.15180       -2.59360       -3.23500
F          2.41920        0.72850       -2.83760
F          0.33710        0.87090       -1.99810
F          2.11580        1.14630       -0.66210
H          1.99050       -2.89270        0.81160
H          0.79200       -2.05900        1.87450
H          2.31390       -1.21040        1.39840
