20
TSA8_9_CF3_Me_Cl
C          1.92340       -0.06920       -0.03560
C          1.25440       -1.20420       -0.33400
C          2.12260        1.10020       -0.97060
H          2.36090        0.03990        0.95320
C          1.13230       -2.29020        0.71190
C         -0.16150       -3.14060       -4.33680
C         -0.48210       -2.25230       -3.38930
C         -0.07220       -2.43820       -1.95790
O          0.69850       -1.36280       -1.56620
Cl        -0.66150       -2.88440       -6.00040
H          0.40970       -4.03230       -4.09680
H         -1.05590       -1.36920       -3.65510
H          0.50410       -3.38130       -1.83280
H         -0.98860       -2.48880       -1.33160
F          3.47780        1.30790       -1.14370
F          1.54390        0.90800       -2.21200
F          1.56780        2.22850       -0.39690
H          1.60080       -3.22340        0.33600
H          0.06120       -2.48160        0.92940
H          1.63290       -2.01590        1.66500
