20
TSA8_9_CF3_Me_Cl
C          1.68910       -0.98160       -1.53030
C          0.79210       -1.36070       -0.32820
C          1.46370        0.51300       -1.87830
H          2.75810       -1.06400       -1.23350
C          1.26470       -2.57210        0.48810
C          1.41840       -1.99000       -2.67750
C         -0.07580       -2.07570       -2.98290
C         -0.83530       -2.38650       -1.68680
O         -0.58830       -1.41760       -0.67660
Cl         2.34790       -1.65200       -4.16420
H          1.74100       -2.99770       -2.33900
H         -0.44800       -1.13300       -3.43080
H         -0.60270       -3.41000       -1.32510
H         -1.92090       -2.38640       -1.91690
F          2.29080        0.90740       -2.91310
F          0.15290        0.78100       -2.22630
F          1.77720        1.28410       -0.77220
H          1.27230       -3.50720       -0.10570
H          0.59900       -2.70640        1.36580
H          2.29520       -2.38790        0.85690
