19
TSA8_9_OH_OMe_Cl
C          3.11090       -0.79900        0.52880
C          2.15470       -0.66430        1.68710
O          2.44210       -0.43930       -0.65370
H          3.93210       -0.07160        0.74090
O          2.46590        0.18450        2.70110
C          3.78330       -2.18990        0.37500
C          2.86040       -3.31690       -0.03830
C          1.96450       -3.87290        0.78160
O          1.08860       -1.26290        1.68540
Cl         5.06230       -2.04720       -0.86870
H          4.30390       -2.46940        1.31690
H          2.95320       -3.73310       -1.03780
H          1.85050       -3.54530        1.80730
H          1.34750       -4.69270        0.42810
H          3.08760        0.05890       -1.22030
C          1.66130        0.40350        3.79890
H          2.14900        1.14510        4.46500
H          1.51730       -0.54290        4.36260
H          0.67610        0.80490        3.47850
