19
TSA8_9_OH_OMe_Cl
C          1.82400       -0.02300       -0.03120
C          1.84020       -0.38790        1.26580
O          1.80050       -0.91100       -1.04400
H          1.82180        1.03710       -0.27650
O          1.84470        0.60560        2.18900
C          4.44160       -3.78490        1.11960
C          3.60290       -2.85880        0.64170
C          2.14280       -2.84530        1.01340
O          1.84270       -1.68530        1.70220
Cl         6.14150       -3.75570        0.68110
H          4.09150       -4.56340        1.79080
H          3.98560       -2.08910       -0.02150
H          1.91430       -3.70210        1.68260
H          1.49600       -2.96380        0.12100
H          1.77830       -0.61120       -1.96300
C          1.93010        0.37730        3.54540
H          1.92230        1.34880        4.08030
H          2.87860       -0.15230        3.78240
H          1.06630       -0.23100        3.88830
