19
TSA8_9_OH_OMe_Cl
C          3.04700       -0.82150        0.48610
C          1.67770       -0.82240        1.23110
O          2.82570       -0.90750       -0.89710
H          3.62610        0.10480        0.70900
O          1.47390        0.29800        2.07320
C          3.84890       -2.04460        0.94900
C          3.04780       -3.34000        0.73040
C          1.53970       -3.10220        0.92660
O          1.31950       -2.05760        1.85010
Cl         5.44810       -2.14310        0.16300
H          4.01770       -1.94160        2.04170
H          3.18990       -3.78140       -0.28010
H          1.05870       -4.03870        1.27630
H          1.05290       -2.85390       -0.04720
H          2.46960       -0.02620       -1.18170
C          2.14530        0.13270        3.30300
H          2.06340        1.08190        3.87110
H          3.23110       -0.05480        3.16620
H          1.66450       -0.65790        3.91850
