22
TSA8_9_CH2F_NH2_CHF2
C          1.97060       -1.22930       -1.71970
C          0.68200       -1.97930       -1.43750
C          1.81170        0.20620       -1.17580
H          2.79970       -1.71360       -1.15680
N          0.67850       -3.06380       -0.62680
C          2.32140       -1.25740       -3.24310
C          3.62950       -0.53960       -3.50180
C          3.70650        0.53700       -4.29040
O         -0.36520       -1.60340       -1.94580
C          2.46000       -2.69160       -3.80030
H          1.50140       -0.75580       -3.80610
H          4.53670       -0.91080       -3.03260
H          2.82570        0.94160       -4.77880
H          4.66370        1.02260       -4.45040
F          2.99230        0.92030       -1.26700
H          1.52970        0.16790       -0.10120
H          1.01440        0.74870       -1.72840
H         -0.19840       -3.57110       -0.43710
H          1.54760       -3.40030       -0.18740
F          3.43590       -3.39520       -3.11490
F          1.26440       -3.38270       -3.72480
H          2.74410       -2.64400       -4.87390
