22
TSA8_9_CH2F_NH2_CHF2
C          2.03030       -1.48050       -1.83860
C          0.65030       -0.72990       -1.78910
C          3.13100       -0.58190       -1.23820
H          1.97940       -2.37250       -1.17500
N         -0.38380       -1.57200       -1.19310
C          2.26890       -1.93780       -3.30170
C          2.23350       -0.72960       -4.25810
C          1.22830        0.33060       -3.77890
O          0.18100       -0.27790       -3.05980
C          3.49870       -2.82490       -3.55700
H          1.38450       -2.56750       -3.55130
H          3.21690       -0.22890       -4.39190
H          0.82620        0.87410       -4.65830
H          1.71340        1.10910       -3.14900
F          4.31160       -1.28030       -1.07430
H          2.81200       -0.24770       -0.22770
H          3.32660        0.32060       -1.84860
H         -0.48650       -2.44990       -1.75290
H         -0.10810       -1.81850       -0.21540
F          4.68170       -2.12890       -3.39440
F          3.48400       -3.91970       -2.71110
H          3.46680       -3.19210       -4.60510
