20
TSA8_9_CCl3_CH2F_Cl
C          1.39180       -0.86110        1.42630
C          2.77540       -0.51460        1.98780
C          1.41630       -1.10500       -0.12600
H          0.79610        0.06910        1.56070
C          3.95490       -1.45580        1.98820
C          0.67720       -1.94420        2.31170
C         -0.80140       -2.08520        2.03090
C         -1.65880       -1.07120        2.19290
O          2.93660        0.60330        2.45740
Cl         1.41310       -3.57480        2.22410
H          0.76040       -1.62530        3.37430
H         -1.19590       -3.04250        1.70150
H         -1.32380       -0.09720        2.53290
H         -2.71450       -1.21720        1.98700
Cl         2.25860       -2.59240       -0.64290
Cl        -0.22540       -1.17150       -0.82260
Cl         2.22520        0.26730       -0.93760
F          5.06110       -0.84560        2.55450
H          4.22250       -1.74000        0.95350
H          3.73510       -2.36310        2.57810
