20
TSA8_9_I_NH2_OMe
C          3.12310       -0.08560       -1.88780
C          1.64140       -0.29770       -1.66020
I          3.99550        0.27040        0.06020
H          3.55250       -1.03090       -2.28340
N          1.06380       -1.48760       -1.95190
C          3.36420        1.02310       -2.96180
C          2.99010        2.41440       -2.48560
C          1.99510        3.11350       -3.04200
O          0.95740        0.60770       -1.20600
O          4.65460        1.00550       -3.56580
H          2.68650        0.74800       -3.80150
H          3.53910        2.86800       -1.66710
H          1.41110        2.70950       -3.86280
H          1.75810        4.10590       -2.67200
H          0.05510       -1.63030       -1.79440
H          1.61740       -2.26820       -2.33360
C          5.72780        1.09650       -2.65760
H          6.64430        1.33410       -3.23500
H          5.90910        0.11690       -2.16900
H          5.60610        1.92400       -1.92920
