20
TSA8_9_F_CF3_CCl3
C          3.20150        1.42750       -0.37190
C          1.68290        1.32370       -0.73700
F          3.38780        0.92270        0.90430
H          3.80400        0.79820       -1.05950
C          1.45850        0.98330       -2.21590
C          3.62830        2.91050       -0.41790
C          2.76380        3.71810        0.58130
C          1.37790        3.08080        0.77510
O          0.93240        2.50160       -0.42970
C          5.14760        3.16050       -0.22250
H          3.37240        3.27750       -1.43520
H          3.21640        3.81730        1.59100
H          0.66120        3.85470        1.11880
H          1.40110        2.30700        1.57730
F          1.95920        1.98130       -3.03230
F          2.07700       -0.21420       -2.52730
F          0.10280        0.84950       -2.45290
Cl         5.50750        4.90290       -0.37690
Cl         5.73860        2.61290        1.37320
Cl         6.09030        2.31670       -1.48240
