20
TSA8_9_NO2_Cl_OMe
C          1.92280       -0.12360       -0.00190
C          1.21170       -1.25530        0.15400
N          2.18400        0.47570       -1.26930
H          2.31240        0.36480        0.88820
Cl         0.95670       -1.86290        1.79340
C         -0.16940       -4.72690       -2.63530
C         -0.44830       -3.47180       -2.23410
C         -0.13380       -3.00090       -0.84400
O          0.70480       -1.91070       -0.92080
O         -0.42710       -5.19080       -3.88900
H          0.28480       -5.41890       -1.93240
H         -0.90930       -2.76030       -2.91230
H          0.35000       -3.80990       -0.25110
H         -1.08040       -2.70570       -0.34200
O          2.81680        1.48750       -1.31690
O          1.72610       -0.04650       -2.38700
C         -0.94000       -4.45340       -4.93590
H         -1.03760       -5.10800       -5.82630
H         -0.25230       -3.61700       -5.18530
H         -1.94460       -4.05740       -4.67570
