20
TSA8_9_NO2_Cl_OMe
C          1.55740       -1.87130       -1.52220
C          1.23090       -1.90840       -0.01550
N          1.46310       -0.49550       -2.00060
H          2.60850       -2.20150       -1.67610
Cl         1.77870       -3.39990        0.81820
C          0.61150       -2.85520       -2.25530
C         -0.84800       -2.54140       -1.88280
C         -0.99100       -2.54790       -0.35740
O         -0.12940       -1.59720        0.25050
O          0.82220       -2.77840       -3.65460
H          0.86200       -3.87410       -1.87120
H         -1.16550       -1.55470       -2.27560
H         -0.82000       -3.56700        0.05280
H         -2.03970       -2.28490       -0.10700
O          2.16550        0.34030       -1.51610
O          0.67440       -0.15960       -2.99990
C          0.33490       -3.94020       -4.29090
H          0.90330       -4.84230       -3.97490
H          0.48450       -3.82690       -5.38420
H         -0.75760       -4.06770       -4.12610
