15
TSA8_9_Br_Cl_CN
C          1.58430        0.05980       -0.01040
C          1.50670        0.45840        1.28770
Br         0.95340       -1.67910       -0.70000
H          1.27310        0.79950       -0.72230
Cl         3.12000        1.05500        1.61920
C         -1.69520        1.02320        3.59900
C         -1.55370        0.82850        2.30200
C         -0.64750        1.79810        1.54980
O          0.69230        1.46540        1.78920
C         -1.97510       -0.09990        4.44860
H         -1.42280        1.96670        4.04020
H         -1.78840       -0.17580        1.96780
H         -0.86780        2.83000        1.88560
H         -0.78550        1.91870        0.46950
N         -2.19930       -0.99210        5.14850
