21
TSA8_9_CF3_CHF2_OH
C          2.71390        0.75270        0.98270
C          1.37130        1.46120        1.03940
C          2.52950       -0.69660        0.47340
H          3.32460        1.28880        0.22120
C          1.14190        2.69780        0.21480
C          3.53910        0.84560        2.30610
C          2.97260        0.10180        3.49960
C          1.89150        0.50070        4.17530
O          0.45690        1.01160        1.71280
O          4.82670        0.34330        2.04830
H          3.63430        1.92620        2.57150
H          3.49820       -0.77910        3.85850
H          1.35100        1.39940        3.90660
H          1.55320       -0.06800        5.03530
F          3.75550       -1.31190        0.29610
F          1.78090       -1.44390        1.36590
F          1.87610       -0.68140       -0.74710
F         -0.14980        3.16610        0.38120
F          2.03150        3.68330        0.60010
H          1.30120        2.46140       -0.85800
H          5.45040        0.79270        2.67760
