21
TSA8_9_CF3_CHF2_OH
C          2.82060        0.59010        0.80080
C          1.38710        1.12810        1.01730
C          2.75370       -0.91800        0.44990
H          3.27430        1.08300       -0.08770
C          1.16130        2.62510        0.73460
C          3.67810        0.93240        2.04340
C          2.98380        0.45770        3.32170
C          1.56070        1.03010        3.36680
O          0.79570        0.66300        2.22720
O          4.96160        0.37540        1.93710
H          3.76990        2.04080        2.09240
H          2.95440       -0.64850        3.37570
H          1.57510        2.12980        3.50270
H          1.05970        0.62340        4.26960
F          4.02360       -1.41890        0.22740
F          2.14500       -1.66480        1.44110
F          2.02210       -1.07820       -0.71410
F         -0.18570        2.91580        0.84180
F          1.87230        3.44720        1.58690
H          1.48410        2.84480       -0.30430
H          5.53900        0.86000        2.58360
