17
TSA8_9_Br_CBr3_Br
C          2.96960        0.96890       -2.01520
C          1.44650        0.91140       -1.65950
Br         3.99950        0.63680       -0.39500
H          3.25140        0.17050       -2.73340
C          0.63690       -0.09120       -2.50180
C          3.29830        2.34010       -2.62510
C          2.86520        3.47840       -1.68890
C          1.58420        3.10030       -0.92740
O          0.81910        2.19300       -1.69100
Br         5.16140        2.52460       -3.14310
H          2.69590        2.43250       -3.55390
H          3.63800        3.75820       -0.94080
H          0.99820        4.01540       -0.70600
H          1.83060        2.65090        0.06380
Br         1.33130       -1.89320       -2.29780
Br        -1.20180       -0.11790       -1.88660
Br         0.64110        0.38350       -4.38490
