18
TSA8_9_CN_OH_NH2
C          2.68760        0.90000       -0.28880
C          1.93870       -0.02900       -1.24890
C          1.77600        1.28340        0.79640
H          3.50350        0.30020        0.17710
O          2.40430       -1.27290       -1.50270
C          3.32380        2.18580       -0.92750
C          2.84320        2.49360       -2.33320
C          1.58580        2.88000       -2.55430
O          0.89620        0.32870       -1.77380
N          4.79180        2.10850       -0.86350
H          3.03380        3.08470       -0.32880
H          3.52800        2.42750       -3.17580
H          1.24730        3.10160       -3.55820
H          0.89140        2.97200       -1.72370
N          1.08790        1.61080        1.67630
H          1.93350       -1.85830       -2.11540
H          5.12430        2.78390       -0.13040
H          5.25410        2.42480       -1.74510
