18
TSA8_9_CN_OH_NH2
C          1.62390       -0.05540       -0.05230
C          1.48950       -0.19190       -1.39900
C          1.81610        1.14660        0.71430
H          1.55480       -0.94990        0.54660
O          1.55070       -1.45090       -1.85240
C          3.60540        3.12260       -1.28620
C          3.02300        2.41350       -2.26130
C          1.54160        2.14960       -2.26270
O          1.34390        0.79320       -2.34270
N          5.00170        3.37470       -1.27000
H          3.00540        3.53260       -0.48720
H          3.63220        2.02280       -3.07730
H          1.10780        2.63310       -3.17300
H          1.01260        2.56970       -1.38430
N          1.97150        2.12430        1.31260
H          1.96950       -1.60280       -2.71180
H          5.40780        3.92890       -0.50040
H          5.63220        2.99530       -1.99120
