21
TSA8_9_CF3_OH_CHF2
C          1.44780       -1.14480        1.95240
C          0.97830        0.18420        1.38130
C          1.58550       -2.17690        0.80490
H          2.47370       -0.98820        2.35420
O          1.76730        1.27860        1.44320
C          0.54840       -1.54770        3.17290
C         -0.90950       -1.74810        2.80510
C         -1.87560       -0.96150        3.29100
O         -0.11700        0.27540        0.84830
C          1.05190       -2.78080        3.94740
H          0.63090       -0.69450        3.88580
H         -1.18810       -2.55540        2.13630
H         -1.64900       -0.14280        3.96680
H         -2.90890       -1.13600        3.00990
F          2.19120       -3.33630        1.24580
F          0.35820       -2.48540        0.24810
F          2.39200       -1.64800       -0.18880
H          2.64380        1.25740        1.85150
F          0.34710       -2.89920        5.13310
F          0.87540       -3.94950        3.22960
H          2.12650       -2.65830        4.19950
