19
TSA8_9_I_CH2F_NH2
C          2.95500        1.13330        1.47410
C          1.40380        0.93100        1.51470
I          3.91920       -0.60890        0.64040
H          3.22160        1.94640        0.76360
C          0.68450        2.22900        1.14150
C          3.43350        1.47680        2.89230
C          3.06710        0.34340        3.87130
C          1.78380       -0.38090        3.42720
O          0.90040        0.51360        2.78920
N          4.86000        1.79600        2.93790
H          2.86820        2.38270        3.20180
H          3.86130       -0.42760        3.97470
H          1.29630       -0.83430        4.31460
H          2.00810       -1.22970        2.74510
F         -0.68210        2.01870        1.12770
H          0.99900        2.56190        0.13010
H          0.91930        3.02910        1.87520
H          5.43200        0.94890        2.72060
H          5.10680        2.11980        3.90130
