23
TSA8_9_Et_F_CBr3
C          2.44410        1.34770        0.61650
C          1.19950        1.40580       -0.25200
C          2.53610       -0.08540        1.21010
H          3.28560        1.47220       -0.09630
F          1.32300        1.61110       -1.58910
C          2.42620        2.58480        1.59850
C          1.23780        2.52820        2.54410
C          0.24530        3.42100        2.50170
O          0.08580        1.24840        0.22620
C          3.71550        2.93800        2.40590
H          2.30470        3.44930        0.90620
H          1.18770        1.73560        3.28480
H          0.24880        4.23260        1.78030
H         -0.58240        3.34090        3.19770
C          3.94530       -0.54860        1.57870
H          2.23560       -0.80280        0.41300
H          1.82400       -0.21640        2.05160
H          4.40020        0.02930        2.38400
H          3.90330       -1.60790        1.91230
H          4.61070       -0.48790        0.69210
Br         3.58270        4.78900        2.99510
Br         3.98650        1.93570        4.05720
Br         5.31670        2.84870        1.30850
