19
TSA8_9_H_NH2_CCl3
C          3.25280        1.41210        1.73640
C          1.76490        1.50820        1.47250
H          3.72490        0.84860        0.90250
H          3.64350        2.45060        1.71650
N          1.32480        2.06800        0.32220
C          3.62110        0.74300        3.08840
C          3.15680       -0.70250        3.08680
C          2.26450       -1.16410        3.96850
O          0.95300        1.09680        2.28780
C          5.14600        0.81350        3.38280
H          3.10880        1.30780        3.90070
H          3.56140       -1.38840        2.34790
H          1.83390       -0.51540        4.72470
H          1.95850       -2.20470        3.93510
H          0.31540        2.14670        0.13070
H          1.99260        2.42470       -0.37730
Cl         5.50680        0.06460        4.96490
Cl         6.12140       -0.02290        2.13810
Cl         5.70360        2.50830        3.47970
