21
TSA8_9_CHF2_CN_CF3
C          2.48010       -1.68480        0.70960
C          1.21090       -0.98570        1.29900
C          2.44490       -1.37700       -0.81890
H          3.39980       -1.18700        1.10110
C          1.56490        0.05450        2.26900
C          2.45420       -3.18630        1.18520
C          1.14670       -3.83230        0.73410
C         -0.04750       -2.91980        1.03910
O          0.30520       -1.89440        1.94600
C          3.65720       -4.17040        1.06220
H          2.34170       -3.11090        2.29050
H          1.15180       -4.14960       -0.33090
H         -0.82260       -3.56200        1.50520
H         -0.49030       -2.49080        0.11410
F          3.64630       -1.65350       -1.43690
F          1.42610       -2.03970       -1.48020
H          2.25050       -0.28530       -0.95810
N          1.86580        0.89980        3.00890
F          4.58220       -3.77790        0.12000
F          4.29580       -4.27700        2.29190
F          3.21560       -5.45000        0.74550
