14
TSA8_9_I_Cl_Cl
C          1.68190        1.76370       -1.25640
C          0.35460        1.28150       -1.78180
I          1.73700        1.21190        0.82290
H          2.49180        1.20010       -1.76870
Cl         0.29280        0.04150       -3.02490
C          1.87660        3.27730       -1.54910
C          3.24590        3.80460       -1.16940
C          3.66250        3.95950        0.09080
O         -0.68880        1.74780       -1.35050
Cl         1.67840        3.56040       -3.30990
H          1.09640        3.87780       -1.03320
H          3.92760        4.11140       -1.95850
H          3.03400        3.72070        0.93710
H          4.65280        4.35890        0.28480
