14
TSA8_9_I_Cl_Cl
C          2.12370        1.62390       -1.68940
C          0.95680        1.46880       -0.66810
I          3.98930        0.96460       -0.82800
H          1.96790        0.93720       -2.54950
Cl        -0.51940        0.95730       -1.53090
C          2.16400        3.08180       -2.15640
C          2.37210        4.02370       -0.96030
C          1.76980        3.43400        0.32790
O          0.62310        2.66510        0.04110
Cl         3.38550        3.37320       -3.42540
H          1.16820        3.30910       -2.59590
H          3.44270        4.24090       -0.75390
H          1.51350        4.26160        1.02070
H          2.50730        2.80620        0.87380
