22
TSA8_9_Et_Br_NH2
C          2.28180        0.81870        1.50170
C          0.97570        1.50950        0.98860
C          2.22470       -0.69090        1.14130
H          3.14930        1.23950        0.94640
Br         1.39460        3.06200       -0.09940
C          2.42520        1.14620        3.00960
C          1.17990        0.67840        3.78460
C         -0.09460        0.88040        2.94760
O          0.08760        1.93100        2.02350
N          3.64600        0.61710        3.61060
H          2.45550        2.25810        3.08610
H          1.22240       -0.38530        4.10370
H         -0.94500        1.10570        3.62310
H         -0.38170       -0.04980        2.40710
C          3.54580       -1.43610        1.33640
H          1.98490       -0.76940        0.05750
H          1.42420       -1.21530        1.70050
H          4.35170       -0.94850        0.74720
H          3.43260       -2.48030        0.97500
H          3.84210       -1.48910        2.40050
H          4.47290        1.01710        3.11150
H          3.69850        0.92740        4.60810
