22
TSA8_9_OH_CHF2_OMe
C          1.76690       -0.05800        0.08780
C          1.42890       -1.20950        0.71420
O          1.81590        0.05270       -1.25490
H          2.00300        0.82430        0.67680
C          1.38210       -1.24070        2.21830
C          2.99360       -3.05460       -2.95900
C          2.65920       -2.74020       -1.69500
C          1.21660       -2.69020       -1.27070
O          1.11000       -2.37560        0.07290
O          4.27980       -3.12550       -3.39990
H          2.20400       -3.26680       -3.67360
H          3.42530       -2.52150       -0.95780
H          0.77680       -3.69780       -1.42420
H          0.63130       -1.97330       -1.88430
H          2.04990        0.89220       -1.67280
F          0.10700       -1.58110        2.62960
F          2.27590       -2.18770        2.68230
H          1.64610       -0.25950        2.66740
C          5.40990       -2.91970       -2.63440
H          6.30880       -3.04850       -3.27170
H          5.45300       -3.66140       -1.80810
H          5.41300       -1.88840       -2.22140
