22
TSA8_9_OH_CHF2_OMe
C          2.72130       -1.22640       -0.69910
C          1.45320       -1.55550        0.11960
O          2.80050        0.16150       -0.89960
H          3.59870       -1.59300       -0.11740
C          1.43200       -0.86090        1.48270
C          2.60370       -1.95190       -2.06510
C          2.25270       -3.43900       -1.87610
C          1.03630       -3.54180       -0.94860
O          1.33500       -2.95340        0.30080
O          3.70300       -1.75950       -2.94890
H          1.72370       -1.50030       -2.57630
H          3.08650       -3.99920       -1.40710
H          0.79960       -4.61440       -0.79010
H          0.13210       -3.07890       -1.40820
H          3.75010        0.37590       -1.08670
F          0.24930       -1.15920        2.13360
F          2.49610       -1.28620        2.25860
H          1.49260        0.23960        1.35240
C          4.95960       -2.04860       -2.36570
H          5.68030       -2.25240       -3.18350
H          4.95970       -2.95520       -1.72880
H          5.34030       -1.17360       -1.80010
