17
TSA8_9_Me_I_I
C          1.61880       -0.46520        1.62180
C          0.99280        0.73360        0.94770
C          1.35530       -1.72850        0.78490
H          2.71830       -0.30280        1.64400
I          2.20580        2.32430        0.27310
C          1.14820       -0.58490        3.09550
C         -0.33220       -0.85310        3.23200
C         -1.15030        0.00200        3.85330
O         -0.21470        0.79780        0.77560
I          2.21450       -2.12400        4.14500
H          1.41430        0.36520        3.61050
H         -0.74820       -1.76730        2.82050
H         -0.77770        0.92730        4.28180
H         -2.20860       -0.22310        3.93540
H          0.26890       -1.93980        0.70080
H          1.85840       -2.61090        1.22960
H          1.76110       -1.59040       -0.24020
