17
TSA8_9_Me_I_I
C          1.65510       -0.58810        1.70510
C          0.85540        0.65290        1.26860
C          1.36430       -1.74290        0.73040
H          2.74300       -0.37120        1.63420
I          1.56970        2.52420        2.06660
C          1.29260       -0.90710        3.17260
C         -0.22370       -1.02730        3.32730
C         -0.88290        0.24530        2.77880
O         -0.54630        0.47060        1.41770
I          2.28030       -2.64610        3.94910
H          1.62900       -0.06110        3.81070
H         -0.60610       -1.91610        2.78340
H         -0.62340        1.12510        3.40580
H         -1.98360        0.12490        2.85460
H          0.28860       -2.01120        0.70790
H          1.95260       -2.64370        0.99850
H          1.66110       -1.44360       -0.29770
