19
TSA8_9_CHF2_NH2_I
C          1.68760       -1.66080        0.92700
C          0.81200       -0.47270        1.38740
C          1.58850       -1.79220       -0.61230
H          2.75490       -1.43500        1.14490
N          1.14160       -0.01300        2.73590
C          1.27200       -2.91130        1.74620
C         -0.23740       -3.13730        1.66870
C         -0.95680       -1.84550        2.07620
O         -0.57740       -0.75150        1.25340
I          2.33420       -4.71460        1.27250
H          1.51400       -2.71300        2.81370
H         -0.54380       -3.44470        0.64900
H         -0.77850       -1.61720        3.15060
H         -2.04960       -2.00680        1.97110
F          2.43260       -2.77670       -1.08870
F          0.30110       -2.04620       -1.04610
H          1.91450       -0.83300       -1.06940
H          0.53460        0.80900        2.95520
H          2.13000        0.32720        2.73410
