27
TSA8_9_Et_CF3_OMe
C          1.88320        0.06290        0.20070
C          1.45690       -0.04590        1.49650
C          1.90390       -0.94990       -0.92190
H          2.25710        1.02840       -0.12500
C          1.52980        1.16510        2.40410
C          2.60520       -4.08150        2.57410
C          2.24270       -3.09220        1.73390
C          0.86100       -2.48720        1.77080
O          0.93040       -1.15150        2.10990
O          3.84580       -4.64410        2.57700
H          1.88550       -4.45920        3.29230
H          2.95280       -2.70560        1.01830
H          0.25690       -2.99240        2.55390
H          0.29300       -2.63410        0.83400
C          3.31760       -1.09250       -1.48030
H          1.24640       -0.57390       -1.73430
H          1.54430       -1.94630       -0.65750
H          3.68910       -0.11140       -1.84700
H          3.31140       -1.80530       -2.33190
H          4.01160       -1.47200       -0.70180
F          0.25440        1.48680        2.82950
F          2.30080        0.85100        3.50810
F          2.08040        2.27870        1.79130
C          4.89390       -4.30140        1.74680
H          5.77290       -4.93110        1.99410
H          5.16960       -3.23540        1.89530
H          4.61690       -4.47930        0.68570
