23
TSA8_9_CF3_CF3_CHF2
C          2.14580       -0.79080       -2.04460
C          0.82790       -1.53950       -1.95840
C          2.01910        0.52500       -1.23460
H          2.92860       -1.41240       -1.55400
C          0.75600       -2.87670       -1.27020
C          2.57400       -0.53920       -3.52990
C          3.94080        0.11180       -3.57930
C          4.13920        1.31810       -4.11960
O         -0.18520       -1.05140       -2.44090
C          2.64740       -1.83040       -4.37410
H          1.82070        0.12530       -4.01070
H          4.79170       -0.42030       -3.16200
H          3.31860        1.88540       -4.54710
H          5.13620        1.74570       -4.13300
F          3.23080        1.18780       -1.16410
F          1.08420        1.36700       -1.81380
F          1.61920        0.24140        0.05980
F         -0.53440       -3.37590       -1.30750
F          1.60060       -3.77460       -1.89700
F          1.14370       -2.73870        0.05020
F          3.53460       -2.73650       -3.81790
F          1.40500       -2.42500       -4.49990
H          2.99370       -1.57940       -5.40050
