23
TSA8_9_CF3_CF3_CHF2
C          2.29260       -1.20120       -2.18050
C          0.80420       -0.73810       -1.99820
C          3.20290       -0.37730       -1.23870
H          2.39440       -2.26140       -1.85590
C         -0.08320       -1.80540       -1.35210
C          2.64370       -1.14740       -3.69740
C          2.29170        0.22040       -4.31150
C          0.98820        0.77290       -3.71430
O          0.20370       -0.28440       -3.20600
C          4.05690       -1.59900       -4.09890
H          1.94680       -1.87800       -4.16890
H          3.08590        0.99160       -4.21470
H          0.43100        1.32810       -4.49640
H          1.19660        1.51870       -2.91190
F          4.49240       -0.87280       -1.24680
F          3.22990        0.95830       -1.59510
F          2.73230       -0.47320        0.05920
F         -1.35050       -1.29080       -1.15080
F         -0.17140       -2.91250       -2.17760
F          0.43990       -2.18730       -0.13000
F          5.02020       -0.69760       -3.68550
F          4.33120       -2.84860       -3.57280
H          4.11430       -1.66480       -5.20650
