16
TSA8_9_NO2_I_I
C          1.99380        0.02870        0.10700
C          1.29710       -0.06390        1.25280
N          2.28070       -1.08610       -0.73530
H          2.35180        1.00880       -0.19780
I          0.96250        1.72720        2.35490
C         -1.06200       -3.31440        3.96040
C         -0.27640       -2.88960        2.96770
C          0.01450       -1.43050        2.78340
O          0.82310       -1.26130        1.68150
I         -1.45530       -5.37330        4.20650
H         -1.51050       -2.60980        4.65440
H          0.15880       -3.61400        2.28470
H          0.52380       -1.04530        3.69380
H         -0.94060       -0.88190        2.62820
O          2.89470       -0.91370       -1.74310
O          1.87080       -2.30090       -0.43430
