16
TSA8_9_NO2_I_I
C          0.54530       -1.12820        0.70250
C          1.16080        0.02690        1.51430
N          1.61540       -1.85660        0.02820
H         -0.12120       -0.71060       -0.08350
I         -0.20700        1.60700        2.04750
C         -0.30470       -1.98920        1.66810
C          0.52900       -2.41360        2.88050
C          1.14480       -1.16440        3.52290
O          1.94650       -0.44080        2.60120
I         -1.25970       -3.66470        0.72550
H         -1.14040       -1.36210        2.04810
H          1.33720       -3.11450        2.59090
H          1.78470       -1.48930        4.36950
H          0.35580       -0.51770        3.96280
O          2.30970       -1.27980       -0.75400
O          1.81500       -3.14240        0.22370
