21
TSA8_9_CH2F_OH_CHF2
C          1.90500       -0.09710       -0.17540
C          1.54630       -0.56740       -1.40550
C          1.91410        1.30080        0.38440
H          2.22960       -0.83790        0.55070
O          1.61290       -1.90400       -1.60760
C          3.05540        2.48170       -4.01930
C          2.55390        2.00030       -2.87210
C          1.13050        1.51120       -2.76890
O          1.11150        0.16270       -2.47750
C          4.47980        2.94080       -4.11230
H          2.43410        2.53800       -4.90890
H          3.19510        1.94730       -1.99870
H          0.61960        1.64360       -3.74600
H          0.52090        2.08720       -2.05000
F          3.19740        1.61430        0.79090
H          1.24910        1.32150        1.27250
H          1.57010        2.09460       -0.28040
H          1.90740       -2.53380       -0.93430
F          4.70130        3.98070       -3.22760
F          5.33300        1.89270       -3.81470
H          4.69040        3.29300       -5.14340
