19
TSA8_9_NO2_F_Me
C          1.58630       -0.97750        2.12900
C          1.37040        0.33740        1.41640
N          1.55510       -2.06570        1.15530
H          2.60740       -0.94820        2.57160
F          2.34970        1.27870        1.42550
C          0.59000       -1.12460        3.32460
C         -0.86490       -1.15190        2.89520
C         -1.72900       -0.20460        3.27480
O          0.33080        0.55960        0.81530
C          0.90230       -2.35230        4.19310
H          0.75700       -0.23870        3.98000
H         -1.23280       -1.95660        2.26860
H         -1.41780        0.62350        3.90400
H         -2.76400       -0.25440        2.95240
O          2.33890       -2.06480        0.25430
O          0.69660       -3.05810        1.24540
H          0.75690       -3.30500        3.64720
H          0.23420       -2.36370        5.08100
H          1.95180       -2.30770        4.55390
