19
TSA8_9_NO2_F_Me
C          1.94950       -0.03070        0.12380
C          1.21070        0.30310        1.19530
N          2.22650       -1.37660       -0.25690
H          2.34970        0.77370       -0.48790
F          0.99910        1.62360        1.45370
C         -0.34420       -1.74310        5.07940
C         -0.56840       -1.58620        3.76630
C         -0.18080       -0.32880        3.04390
O          0.67570       -0.63920        2.00980
C         -0.74350       -3.00050        5.78710
H          0.13000       -0.95180        5.65370
H         -1.05040       -2.38020        3.20210
H          0.30950        0.39240        3.73550
H         -1.09980        0.14100        2.63200
O          2.88230       -1.58350       -1.23310
O          1.75800       -2.39660        0.42920
H         -0.20850       -3.86920        5.34850
H         -1.83930       -3.15660        5.69440
H         -0.48260       -2.92350        6.86340
