19
TSA8_9_NO2_F_Me
C          1.56950       -1.02440        2.46730
C          1.21880        0.33690        1.83840
N          1.62040       -2.02860        1.40760
H          2.58200       -0.96530        2.92460
F          1.42680        1.39360        2.71360
C          0.53710       -1.29780        3.59900
C         -0.89210       -1.17850        3.05340
C         -1.04630        0.18400        2.36470
O         -0.10220        0.34530        1.31700
C          0.76140       -2.61270        4.35720
H          0.66000       -0.48910        4.35540
H         -1.12170       -1.98670        2.33000
H         -0.96650        1.01290        3.10360
H         -2.06820        0.24620        1.93620
O          2.41130       -1.89800        0.52190
O          0.82870       -3.07820        1.39650
H          0.62670       -3.50650        3.71970
H          0.03500       -2.68630        5.19460
H          1.78630       -2.63090        4.78450
