20
TSA8_9_Et_Cl_F
C          1.72970        0.02270        0.26250
C          1.31760       -0.36300        1.49510
C          1.86230       -0.78760       -1.00100
H          1.96970        1.07600        0.13780
Cl         1.17130        0.90110        2.70780
C          3.49460       -3.62950        3.02480
C          3.02510       -2.81940        2.07010
C          1.58130       -2.84050        1.64480
O          0.98430       -1.62080        1.91410
F          4.80470       -3.57310        3.37980
H          2.84370       -4.33750        3.52870
H          3.70390       -2.12270        1.58930
H          1.02400       -3.61560        2.21310
H          1.50150       -3.14240        0.59460
C          3.30820       -0.80210       -1.48240
H          1.22920       -0.30760       -1.77740
H          1.49690       -1.81340       -0.91740
H          3.67150        0.23450       -1.65040
H          3.37670       -1.36110       -2.43910
H          3.95820       -1.29920       -0.73280
