20
TSA8_9_Et_Cl_F
C          2.37070       -0.84270        1.08130
C          0.92770       -0.92350        1.68280
C          2.31050       -1.03200       -0.45810
H          2.77850        0.18000        1.24650
Cl         0.67220        0.41490        2.83620
C          3.24390       -1.86180        1.83550
C          2.67290       -3.27840        1.69440
C          1.13410       -3.25150        1.67020
O          0.64550       -2.13700        2.38310
F          4.57600       -1.82460        1.46930
H          3.19430       -1.59020        2.91300
H          3.02450       -3.80520        0.78160
H          0.74970       -4.19170        2.11690
H          0.73110       -3.23530        0.63520
C          3.65620       -0.83950       -1.15810
H          1.61700       -0.26420       -0.86590
H          1.91400       -2.02490       -0.74250
H          4.07730        0.16040       -0.92120
H          3.51000       -0.91020       -2.25710
H          4.37810       -1.62820       -0.87050
