18
TSA8_9_NO2_F_NH2
C          1.68360       -0.94900        2.16500
C          1.18790        0.40370        1.61980
N          1.53130       -1.95730        1.11900
H          2.76730       -0.87390        2.40490
F          1.55940        1.46880        2.42820
C          0.91260       -1.22870        3.48510
C         -0.60290       -1.13070        3.25760
C         -0.91460        0.22600        2.61200
O         -0.21360        0.39070        1.38820
N          1.29970       -2.49300        4.11720
H          1.18730       -0.41420        4.19430
H         -0.96660       -1.94380        2.59700
H         -0.69140        1.06020        3.31440
H         -2.00440        0.27450        2.40750
O          2.12240       -1.81940        0.09060
O          0.77500       -3.02130        1.27440
H          0.91430       -3.31330        3.60140
H          0.89530       -2.52400        5.08140
