19
TSA8_9_CH2F_Cl_NH2
C          1.61390       -1.48060       -1.64870
C          1.21830       -1.37970       -0.19140
C          1.45930       -0.10710       -2.32930
H          2.69350       -1.74720       -1.68800
Cl         2.40310       -1.69180        1.06710
C          0.83780       -2.62940       -2.35660
C         -0.66420       -2.41340       -2.37000
C         -1.50410       -3.25750       -1.76140
O          0.08110       -1.06980        0.12960
N          1.32330       -2.82040       -3.72570
H          1.07220       -3.56060       -1.79070
H         -1.07490       -1.55290       -2.88950
H         -1.13720       -4.13140       -1.23160
H         -2.57290       -3.07470       -1.79050
F          2.22140        0.83780       -1.66380
H          0.40080        0.22590       -2.32450
H          1.81620       -0.14640       -3.37820
H          1.02900       -2.02410       -4.33600
H          0.89880       -3.69110       -4.12120
