19
TSA8_9_CH2F_Cl_NH2
C          1.52380       -1.54730       -1.70590
C          1.02200       -1.60490       -0.24940
C          1.35870       -0.11200       -2.24240
H          2.61220       -1.77490       -1.73080
Cl         1.59510       -3.03840        0.66480
C          0.76100       -2.61980       -2.52350
C         -0.75330       -2.44400       -2.34550
C         -1.08070       -2.44600       -0.84720
O         -0.38450       -1.41980       -0.15400
N          1.13830       -2.60880       -3.93840
H          1.03370       -3.61560       -2.10760
H         -1.09870       -1.49190       -2.80140
H         -0.87510       -3.44250       -0.39920
H         -2.17070       -2.27340       -0.73120
F          2.08560        0.76700       -1.45830
H          0.29790        0.21140       -2.23530
H          1.74690       -0.03710       -3.27860
H          0.76880       -1.75150       -4.40900
H          0.70570       -3.43520       -4.41120
