20
TSA8_9_NO2_Me_CN
C          1.61330        0.00360        0.04600
C          1.59040       -0.71280        1.27400
N          1.63180       -0.55880       -1.26120
H          1.47940        1.06280        0.07880
C          1.53060        0.05920        2.56800
C          0.64350       -5.20980       -0.05880
C          1.24860       -4.18720        0.54220
C          0.61290       -2.85770        0.74510
O          1.48600       -2.07190        1.47130
C          1.37290       -6.44700       -0.19140
H         -0.37160       -5.12350       -0.43450
H          2.26100       -4.33210        0.90670
H         -0.34320       -2.95290        1.31250
H          0.38230       -2.42310       -0.25390
O          1.28060        0.02780       -2.25880
O          2.43900       -1.56180       -1.35700
H          2.25360       -0.37590        3.29630
H          0.49710       -0.01430        2.98910
H          1.81540        1.11590        2.41010
N          1.99450       -7.41950       -0.27560
