20
TSA8_9_NO2_Me_CN
C          1.25940       -1.90180       -0.15540
C          1.84670       -1.64450        1.26880
N          2.03440       -1.26330       -1.20830
H          0.24650       -1.43860       -0.13990
C          1.74980       -0.16900        1.67420
C          1.01920       -3.42340       -0.41970
C          0.51850       -4.14650        0.84850
C          0.10040       -3.13860        1.91160
O          1.24090       -2.40260        2.31990
C          2.15620       -4.18720       -0.96860
H          0.22470       -3.47350       -1.19330
H          1.34780       -4.71900        1.33130
H         -0.29070       -3.69260        2.78820
H         -0.72260       -2.47430        1.56670
O          1.53850       -0.41020       -1.88100
O          3.28750       -1.60460       -1.42250
H          2.23990       -0.02920        2.66240
H          0.68150        0.12200        1.78550
H          2.23860        0.50120        0.93940
N          3.02230       -4.82160       -1.40210
