19
TSA8_9_NO2_Me_I
C          2.64810        1.06560        1.05560
C          1.37310        1.57080        0.41630
N          2.75390       -0.37540        0.88840
H          3.49840        1.54840        0.51860
C          1.44350        2.50420       -0.75750
C          2.77310        1.50410        2.53670
C          1.78080        0.84610        3.46620
C          0.87400        1.54270        4.15670
O          0.28300        1.21820        0.84250
I          4.74080        1.07390        3.26800
H          2.66390        2.61120        2.57320
H          1.81110       -0.22990        3.60220
H          0.80360        2.62200        4.06780
H          0.19080        1.02530        4.82200
O          3.65950       -0.83830        0.26420
O          1.81810       -1.17970        1.34950
H          1.98700        3.42870       -0.46990
H          0.42660        2.77950       -1.10850
H          1.98620        2.00910       -1.59050
