19
TSA8_9_NO2_Me_I
C          1.95840       -0.00680        0.14760
C          1.55210        1.27110        0.37570
N          1.62670       -1.15120        0.92860
H          2.57170       -0.18910       -0.73210
C          1.89960        2.33260       -0.63520
C          2.88080        2.91790        3.94970
C          2.58370        1.93920        3.09090
C          1.16630        1.52100        2.80430
O          0.85220        1.70800        1.46360
I          4.89670        3.42150        4.32150
H          2.10150        3.46200        4.47380
H          3.38870        1.41140        2.58890
H          0.44620        2.11510        3.40730
H          1.05910        0.48050        3.13290
O          2.14970       -2.19270        0.66610
O          0.56690       -1.16160        1.70280
H          2.50900        3.12150       -0.14770
H          0.96300        2.78820       -1.02010
H          2.47040        1.93450       -1.50150
