15
TSA8_9_OH_I_Cl
C          1.40750       -1.35280       -1.12200
C          1.13370       -1.31380        0.36010
O          0.92200       -0.17540       -1.71650
H          2.51380       -1.41220       -1.25430
I          2.72900       -1.45140        1.73600
C          0.84590       -2.59110       -1.86770
C         -0.66180       -2.72220       -1.87030
C         -1.35900       -3.09770       -0.79380
O          0.00590       -1.13040        0.78710
Cl         1.39970       -2.50770       -3.56790
H          1.28360       -3.52160       -1.44470
H         -1.20800       -2.55460       -2.79450
H         -0.86920       -3.32980        0.14520
H         -2.43750       -3.19990       -0.85530
H          1.62490        0.51710       -1.60640
