17
TSA8_9_H_NH2_CN
C          1.39280        2.33650        0.18440
C          1.63000        1.87870       -1.24270
H          0.84310        1.47800        0.59700
H          2.25720        2.32030        0.88420
N          2.87130        1.70580       -1.75130
C          0.46300        3.59590        0.26000
C         -0.89540        3.09930        0.66100
C         -1.74610        2.69260       -0.27400
O          0.66470        1.60190       -1.93910
C          0.86070        4.67600        1.17870
H          0.41650        4.09580       -0.72920
H         -1.11500        2.92140        1.71220
H         -1.49280        2.79960       -1.32450
H         -2.66970        2.21360        0.01030
H          3.71410        1.92420       -1.20410
H          2.98230        1.32640       -2.70630
N          1.11810        5.56880        1.87440
