15
TSA8_9_F_CN_Cl
C          2.05400       -1.04190       -1.32230
C          1.83770       -1.97720       -0.10680
F          3.29900       -0.44360       -1.26480
H          1.27860       -0.23830       -1.36310
C          1.54690       -1.28600        1.15300
C          1.90310       -1.94920       -2.54280
C          0.42240       -2.30860       -2.61760
C         -0.11120       -2.71320       -1.22480
O          0.93110       -3.06120       -0.32610
Cl         2.46010       -1.23840       -4.07790
H          2.49580       -2.88220       -2.39500
H         -0.15820       -1.41100       -2.94750
H         -0.76790       -3.59310       -1.37730
H         -0.74000       -1.91210       -0.77340
N          1.32100       -0.76390        2.16040
