15
TSA8_9_F_OH_Cl
C          2.13040       -0.15830        0.04660
C          1.36570       -1.16940        0.47430
F          2.20440        0.13750       -1.27810
H          2.70110        0.43900        0.75060
O          1.29020       -1.46330        1.79520
C         -0.61940       -4.77750       -1.69600
C         -0.79180       -3.50410       -1.32530
C         -0.16130       -2.94610       -0.08350
O          0.66320       -1.89730       -0.42910
Cl        -1.37760       -5.38570       -3.15850
H         -0.01140       -5.45490       -1.10420
H         -1.40500       -2.84690       -1.93520
H          0.42950       -3.72400        0.45020
H         -0.96740       -2.58390        0.59060
H          1.77730       -0.96590        2.46800
