20
TSA8_9_CBr3_Cl_CBr3
C          1.31490       -1.52150       -1.84470
C          1.08970       -1.54650       -0.33960
C          1.39960       -0.03030       -2.33700
H          2.33500       -1.93320       -1.99480
Cl         2.32940       -2.19460        0.72560
C          0.31870       -2.56940       -2.49870
C         -1.14530       -2.22320       -2.27740
C         -1.94410       -2.96020       -1.49940
O          0.05520       -1.12200        0.15190
C          0.53040       -2.99660       -3.98460
H          0.54630       -3.50180       -1.92990
H         -1.57520       -1.36360       -2.77480
H         -1.57320       -3.83930       -0.98050
H         -2.98630       -2.68100       -1.37660
Br        -0.25940        0.97280       -2.21130
Br         2.69600        0.94190       -1.25130
Br         2.12050        0.17560       -4.12190
Br        -0.42760       -4.66370       -4.29680
Br        -0.18840       -1.76970       -5.31850
Br         2.39070       -3.39400       -4.38580
