20
TSA8_9_CBr3_Cl_CBr3
C          1.82040       -0.02360       -0.06190
C          1.05290       -1.12030       -0.21460
C          2.29450        0.94370       -1.13050
H          2.13490        0.21960        0.95070
Cl         0.63450       -2.03810        1.23660
C         -0.39480       -3.92480       -3.65700
C         -0.53690       -2.70870       -3.10310
C         -0.34960       -2.48770       -1.63020
O          0.60770       -1.51580       -1.43380
C         -0.57990       -4.15860       -5.13340
H         -0.14430       -4.77180       -3.02420
H         -0.80180       -1.85640       -3.72330
H         -0.04790       -3.43280       -1.12660
H         -1.31250       -2.14130       -1.19660
Br         1.63240        2.70310       -0.66910
Br         4.22810        0.99750       -1.08840
Br         1.76130        0.59470       -2.97060
Br        -0.35000       -6.04130       -5.53500
Br        -2.36100       -3.63370       -5.69710
Br         0.73520       -3.15600       -6.14590
