20
TSA8_9_CCl3_Me_F
C          1.44250       -0.20980        0.02890
C          1.89130       -1.37480        0.55550
C          2.10810        0.59190       -1.07300
H          0.52400        0.19550        0.44150
C          3.15480       -2.05770        0.11350
C         -0.85050       -4.34940        2.83520
C         -0.07530       -3.91100        1.83890
C         -0.08740       -2.47800        1.38870
O          1.18650       -1.97400        1.54710
F         -0.78760       -5.65160        3.22060
H         -1.52640       -3.67860        3.35460
H          0.59580       -4.60630        1.34180
H         -0.80140       -1.87470        1.99040
H         -0.40620       -2.44110        0.32270
Cl         2.18350       -0.33660       -2.59360
Cl         1.15280        2.06280       -1.39550
Cl         3.74530        1.12120       -0.60530
H          3.29340       -2.99450        0.69310
H          4.03840       -1.41780        0.28960
H          3.08920       -2.33710       -0.95720
