20
TSA8_9_CCl3_Me_F
C          1.19680       -1.19380        1.30090
C          1.91740       -2.32160        0.49460
C          1.26160        0.24630        0.69880
H          1.70650       -1.18310        2.28920
C          3.34280       -2.10880        0.00340
C         -0.28130       -1.65240        1.52300
C         -0.35720       -3.17990        1.54090
C          0.08330       -3.67420        0.13360
O          1.08540       -2.87380       -0.49310
F         -0.78860       -1.12870        2.69940
H         -0.92990       -1.32430        0.68160
H          0.33880       -3.55020        2.32620
H         -0.81680       -3.59950       -0.51220
H          0.38380       -4.74270        0.16680
Cl         0.62000        0.29380       -0.96860
Cl         0.31960        1.39970        1.68620
Cl         2.92440        0.89510        0.67840
H          3.74080       -3.06940       -0.38480
H          3.98850       -1.77830        0.84330
H          3.36500       -1.36670       -0.82040
