19
TSA8_9_OH_OH_CHF2
C          3.14810        0.78790        1.08080
C          1.74710        1.40640        0.78570
O          3.05180       -0.60640        1.22240
H          3.84450        1.01230        0.23950
O          1.91550        2.59060        0.06460
C          3.66360        1.41530        2.38700
C          2.68440        1.10230        3.54030
C          1.25460        0.85790        3.02270
O          0.95390        1.70660        1.93750
C          5.10290        1.01100        2.74370
H          3.65610        2.51800        2.23540
H          2.96770        0.20220        4.12850
H          0.53600        1.02980        3.85040
H          1.11100       -0.20140        2.71240
H          2.83600       -0.96820        0.32350
H          1.43100        2.43630       -0.78550
F          5.20060       -0.35470        2.94600
F          5.96670        1.38060        1.72810
H          5.41460        1.53180        3.67420
