20
TSA8_9_CH2F_Me_I
C          1.90550       -0.00450       -0.12800
C          1.54180       -0.04400       -1.44330
C          1.91510        1.13670        0.85350
H          2.23660       -0.93600        0.32370
C          1.61320       -1.36830       -2.15650
C          2.94000        3.77730       -2.87630
C          2.47510        2.90870       -1.97240
C          1.07200        2.35750       -2.04510
O          1.09850        0.99020       -2.22290
I          4.91530        4.50760       -2.73700
H          2.31880        4.12080       -3.69760
H          3.13410        2.59100       -1.17290
H          0.54900        2.79320       -2.92340
H          0.44990        2.63480       -1.17500
F          3.20020        1.30580        1.33340
H          1.25410        0.86800        1.70370
H          1.56600        2.10210        0.48180
H          2.30470       -1.28010       -3.02020
H          0.60320       -1.63640       -2.53100
H          1.97300       -2.19610       -1.50820
