20
TSA8_9_CH2F_Me_I
C          2.50330        0.92500       -0.97040
C          1.19230        0.31410       -1.57660
C          2.26320        1.28190        0.50960
H          3.31900        0.16740       -0.97860
C          1.45620       -1.03700       -2.23630
C          2.92910        2.12270       -1.84540
C          1.79850        3.15530       -1.95440
C          0.42560        2.46310       -1.99780
O          0.55180        1.16280       -2.52940
I          4.79030        3.05520       -1.32470
H          3.09260        1.71600       -2.86780
H          1.79030        3.89500       -1.12540
H         -0.26920        3.06780       -2.61580
H         -0.04130        2.41400       -0.98810
F          3.42520        1.72680        1.11050
H          1.93160        0.37170        1.05380
H          1.48130        2.05600        0.63360
H          2.15860       -0.91890       -3.08910
H          0.50110       -1.46200       -2.60990
H          1.88900       -1.74390       -1.49760
