22
TSA8_9_Et_NO2_I
C          1.89840        0.07270       -0.17390
C          1.46340        0.98350       -1.09910
C          1.90700        0.11310        1.33730
H          2.29850       -0.86350       -0.55080
N          1.56650        0.64060       -2.48560
C          2.40310        4.78360        0.81170
C          2.11070        3.47940        0.76680
C          0.76710        2.98220        0.29480
O          0.90460        2.20860       -0.83870
I          4.30080        5.43150        1.46990
H          1.67790        5.53370        0.51130
H          2.86730        2.76960        1.07280
H          0.13180        3.85190        0.02190
H          0.19510        2.44810        1.07570
C          3.32520       -0.10030        1.86090
H          1.26990       -0.71880        1.70580
H          1.52050        1.03070        1.78430
H          3.72860       -1.07180        1.50230
H          3.31510       -0.11320        2.97130
H          3.99580        0.71560        1.51910
O          1.18540        1.41140       -3.31430
O          2.07630       -0.51010       -2.87450
