22
TSA8_9_Et_NO2_I
C          2.43010        1.36890       -0.07600
C          1.11280        1.33150       -0.92920
C          2.21730        0.47150        1.17470
H          3.25900        0.91030       -0.66060
N          1.39380        0.91990       -2.29260
C          2.77240        2.85620        0.18050
C          1.61570        3.57150        0.89030
C          0.26040        3.04470        0.38910
O          0.38480        2.56360       -0.93050
I          4.67040        3.34380        1.05380
H          2.85510        3.31960       -0.82780
H          1.64610        3.48050        1.99700
H         -0.48870        3.86170        0.43270
H         -0.13990        2.24180        1.04760
C          3.47320        0.19400        1.99700
H          1.86460       -0.51970        0.81350
H          1.43560        0.88020        1.84550
H          4.26790       -0.24110        1.35390
H          3.22990       -0.53730        2.79670
H          3.84170        1.10450        2.49850
O          1.10620        1.62300       -3.21400
O          1.92120       -0.26350       -2.52140
