21
TSA8_9_CHF2_CBr3_CN
C          1.56380       -0.13690       -0.01410
C          1.43040       -1.49470       -0.12260
C          1.65650        1.10810       -0.95510
H          1.54280        0.31770        1.01030
C          1.58870       -2.38070        1.15520
C          0.69010       -1.82300       -4.84620
C          1.13480       -2.07360       -3.60910
C          0.36000       -1.83040       -2.35220
O          1.10580       -2.20760       -1.25480
C          1.55200       -2.16630       -5.95330
H         -0.29080       -1.40820       -5.03350
H          2.11320       -2.51840       -3.51700
H         -0.58620       -2.41690       -2.37370
H          0.02510       -0.78440       -2.24200
F          2.96140        1.46490       -0.79300
F          1.42490        0.89300       -2.29980
H          1.04860        2.01720       -0.65980
Br         0.54560       -1.71860        2.61660
Br         1.06180       -4.22140        0.82020
Br         3.43660       -2.57310        1.86680
N          2.26810       -2.46200       -6.81320
