21
TSA8_9_CHF2_CBr3_CN
C          1.44480       -0.67550       -1.74730
C          1.52750       -2.00120       -0.89510
C          2.14030        0.69850       -1.46000
H          0.41340       -0.36350       -1.50460
C          1.90090       -2.02790        0.60590
C          1.36480       -1.07960       -3.25740
C          0.66340       -2.43920       -3.43460
C         -0.34200       -2.62510       -2.30550
O          0.29980       -2.73900       -1.03570
C          2.62190       -1.10880       -4.01670
H          0.72470       -0.30340       -3.74090
H          1.38960       -3.28020       -3.33070
H         -0.92260       -3.54760       -2.49110
H         -1.06960       -1.78040       -2.29640
F          3.34880        0.61270       -0.81310
F          2.31720        1.41660       -2.63330
H          1.46590        1.32800       -0.82990
Br         0.73480       -0.90450        1.66470
Br         1.69810       -3.85690        1.26440
Br         3.75600       -1.59770        0.95270
N          3.58180       -1.14220       -4.66870
