14
TSA8_9_Br_H_Cl
C          2.12720        0.06770       -0.24300
C          1.34030        1.09720       -0.55440
Br         2.83340       -0.11260        1.52420
H          2.37180       -0.68250       -0.98850
H          1.09890        1.83870        0.20310
C          1.73450        3.87940       -2.76270
C          0.63160        3.57250       -2.07260
C         -0.01900        2.22060       -2.19200
O          0.84070        1.21060       -1.80870
Cl         2.46740        5.46730       -2.60290
H          2.19150        3.15400       -3.42860
H          0.18710        4.31150       -1.41290
H         -0.31950        2.05610       -3.24830
H         -0.93450        2.18800       -1.56190
