14
TSA8_9_Br_H_Cl
C          2.29220        1.45730       -1.01800
C          0.92910        0.78800       -0.72510
Br         3.03540        2.01060        0.70050
H          3.00570        0.73440       -1.46720
H          0.40550        1.25990        0.13900
C          2.11390        2.62390       -2.02340
C          0.75610        3.27270       -1.79240
C         -0.31500        2.19950       -2.12570
O          0.07820        0.85100       -1.84970
Cl         3.45080        3.80810       -1.98570
H          2.08920        2.20900       -3.05650
H          0.69670        3.58910       -0.72760
H         -0.46830        2.25400       -3.22400
H         -1.28430        2.44550       -1.64270
