20
TSA8_9_CHF2_H_CCl3
C          1.83690        0.08050       -0.02620
C          1.92070        1.11810        0.82070
C          1.55100       -1.34860        0.37390
H          2.02390        0.26610       -1.08140
H          2.18350        2.09020        0.41890
C          2.77980        3.74460        3.98280
C          2.95440        2.86570        2.98420
C          2.58270        1.41170        3.12390
O          1.70910        0.96770        2.14940
C          3.22600        5.17820        3.85720
H          2.33040        3.41230        4.91490
H          3.42350        3.19370        2.06140
H          2.13320        1.20170        4.11870
H          3.51490        0.81780        3.04560
F          2.63850       -2.12560        0.02940
F          1.31610       -1.49070        1.73050
H          0.66280       -1.71280       -0.17720
Cl         2.88730        6.05560        5.37030
Cl         4.98390        5.25050        3.55340
Cl         2.36570        5.98990        2.52340
