18
TSA8_9_CN_F_CF3
C          2.86350       -0.29780       -1.52300
C          1.86030       -1.39510       -1.16180
C          2.37450        0.93710       -0.85740
H          3.82390       -0.60190       -1.06690
F          1.61470       -1.68560        0.14300
C          3.00500       -0.13520       -3.09260
C          1.93040        0.81470       -3.56020
C          0.70780        0.41870       -3.87530
O          1.27910       -2.04900       -2.01520
C          4.34840        0.31160       -3.73590
H          2.89190       -1.15770       -3.51480
H          2.13050        1.88360       -3.49450
H          0.45040       -0.63010       -3.87950
H         -0.04110        1.17130       -4.08450
N          1.92730        1.89560       -0.38120
F          5.41160       -0.43500       -3.26220
F          4.26000        0.09060       -5.10580
F          4.61740        1.65430       -3.53770
