18
TSA8_9_CN_F_CF3
C          2.84930       -0.17430       -1.54150
C          1.55860       -1.01130       -1.29440
C          2.51060        1.18270       -1.06410
H          3.67970       -0.57110       -0.91420
F          1.85530       -2.16130       -0.58590
C          3.16710       -0.25610       -3.06620
C          1.97980        0.34790       -3.81630
C          0.66120       -0.24240       -3.30560
O          0.87430       -1.37840       -2.48900
C          4.47790        0.30300       -3.65390
H          3.22090       -1.34390       -3.30170
H          1.95340        1.45830       -3.69190
H          0.09870       -0.54160       -4.21200
H          0.04870        0.51330       -2.76600
N          2.23290        2.22280       -0.63630
F          5.57620       -0.32330       -3.09390
F          4.47940        0.02260       -5.01460
F          4.58930        1.67010       -3.48940
