22
TSA8_9_Et_Cl_NH2
C          2.45320        1.53350       -0.08610
C          1.27470        1.41770       -1.03170
C          2.35740        0.35970        0.93110
H          3.35100        1.37020       -0.72300
Cl         1.55280        1.16480       -2.74870
C          2.59620        2.98430        0.49760
C          1.62320        3.35450        1.60640
C          0.32010        3.57450        1.41140
O          0.12650        1.42440       -0.62030
N          3.97370        3.22920        0.94210
H          2.44400        3.69310       -0.34870
H          2.00830        3.49600        2.61270
H         -0.13260        3.51220        0.43240
H         -0.30940        3.85650        2.24920
C          3.58090        0.11440        1.80960
H          2.22080       -0.57470        0.34090
H          1.46250        0.48200        1.57970
H          4.49150       -0.00070        1.18410
H          3.42750       -0.82440        2.38310
H          3.71510        0.90850        2.56150
H          4.16980        2.81330        1.87360
H          4.11900        4.25980        1.04880
