22
TSA8_9_Et_Cl_NH2
C          1.79770        0.11490       -0.24150
C          1.37260        1.13700       -1.02970
C          1.87800       -0.00270        1.26200
H          2.12280       -0.78350       -0.76100
Cl         1.41070        0.84710       -2.76380
C          2.57790        4.68810        1.18320
C          2.21850        3.40710        1.01450
C          0.83520        3.02600        0.54740
O          0.89150        2.36280       -0.66030
N          3.88310        5.02660        1.61950
H          1.86940        5.48790        0.98680
H          2.94400        2.62900        1.21490
H          0.23540        3.94740        0.38820
H          0.26980        2.43980        1.29560
C          3.30720       -0.32790        1.68740
H          1.21820       -0.83870        1.57770
H          1.55470        0.88510        1.81190
H          3.64660       -1.27430        1.21380
H          3.34960       -0.45170        2.79030
H          3.99850        0.48960        1.39310
H          4.58580        4.29830        1.81680
H          4.13980        6.01620        1.74300
