22
TSA8_9_Et_Cl_NH2
C          2.38800        1.63310        0.00780
C          1.05250        1.66500       -0.80860
C          2.25230        0.59810        1.15810
H          3.20170        1.25720       -0.65180
Cl         1.38230        1.49630       -2.55460
C          2.70290        3.08610        0.44030
C          1.54320        3.66440        1.27110
C          0.18780        3.16280        0.74360
O          0.27980        2.85100       -0.62790
N          3.97470        3.22490        1.14320
H          2.76270        3.68630       -0.49660
H          1.60400        3.42580        2.35480
H         -0.58090        3.94570        0.90990
H         -0.17040        2.27260        1.30700
C          3.56310        0.28310        1.88150
H          1.90800       -0.35980        0.70940
H          1.49600        0.90890        1.90530
H          4.32710       -0.06840        1.15560
H          3.38570       -0.52500        2.62170
H          3.95030        1.15660        2.43830
H          4.74740        2.89130        0.52300
H          4.14300        4.23490        1.35240
