18
TSA8_9_F_NO2_NO2
C          2.75980        0.91300        0.35990
C          1.68450        1.24630       -0.69250
F          2.14160        0.84060        1.59780
H          3.21480       -0.07820        0.14820
N          2.11670        1.01330       -2.06210
C          3.83570        2.00810        0.36810
C          3.15430        3.36040        0.58880
C          2.09730        3.56630       -0.49980
O          1.11220        2.53850       -0.49680
N          4.83740        1.76200        1.38940
H          4.33330        2.02440       -0.62860
H          2.66490        3.39280        1.58730
H          2.58300        3.66410       -1.49250
H          1.59170        4.53500       -0.30650
O          1.93250        1.83070       -2.91240
O          2.55270       -0.17930       -2.40540
O          4.53540        1.71770        2.54430
O          6.09680        1.59800        1.04510
