21
TSA8_9_CBr3_CN_CHF2
C          0.46450       -1.23950        1.37630
C          1.83680       -0.69280        1.83250
C          0.39020       -1.61980       -0.16460
H          0.08220       -0.22280        1.23070
C          2.96590       -1.61310        2.00840
C         -0.49190       -1.66840        2.59110
C          0.05510       -1.00460        3.87590
C          0.60630        0.38340        3.59100
O          1.81300        0.34020        2.83500
C         -0.86120       -3.11110        3.06090
H         -1.47950       -1.21860        2.35280
H          0.90690       -1.59090        4.30060
H          0.83310        0.85870        4.56010
H         -0.17330        0.99850        3.08500
Br        -0.89640       -0.49070       -1.11890
Br         2.06770       -1.24170       -1.11820
Br        -0.03810       -3.45620       -0.56370
N          3.83680       -2.35350        2.18370
F         -1.57110       -3.82930        2.12170
F          0.22350       -3.84660        3.50750
H         -1.54970       -2.99370        3.94250
