15
TSA8_9_Cl_OH_Cl
C          1.89580        0.00710        0.05370
C          1.59500        0.24600        1.33810
Cl         1.95510       -1.62070       -0.61280
H          2.09080        0.83890       -0.61620
O          1.53250        1.52070        1.77350
C          2.64740       -0.09560        4.76320
C          3.17510       -0.72510        3.70800
C          2.32000       -1.54620        2.78280
O          1.33420       -0.76850        2.20230
Cl         3.66310        0.85810        5.83100
H          1.58400       -0.16390        4.97410
H          4.24060       -0.64800        3.51210
H          1.83940       -2.35860        3.36720
H          2.95460       -2.01340        2.00030
H          1.31600        1.72300        2.69410
