17
TSA8_9_H_I_CHF2
C          3.18060        0.32120       -2.08700
C          1.70330        0.08730       -1.89050
H          3.70170        0.11800       -1.12650
H          3.52840       -0.42260       -2.83560
I          1.04220       -1.80340       -1.23120
C          3.54070        1.74260       -2.58070
C          3.15550        2.78170       -1.54970
C          2.28540        3.76010       -1.81840
O          0.87710        0.95760       -2.11690
C          5.04670        1.85630       -2.86890
H          3.00430        1.92880       -3.53900
H          3.60160        2.73490       -0.55970
H          1.81790        3.84450       -2.79460
H          2.03530        4.48800       -1.05350
F          5.79000        1.61460       -1.72560
F          5.41830        0.95310       -3.84950
H          5.27960        2.87920       -3.23590
