17
TSA8_9_H_I_CHF2
C          2.08310       -0.13310       -0.36040
C          1.39290       -0.00540       -1.50390
H          2.63240        0.69200        0.07720
H          2.09860       -1.08400        0.16100
I          0.34420       -1.68030       -2.24700
C          4.12340        2.76770       -3.30930
C          3.50210        2.08840       -2.33370
C          2.04620        2.31390       -2.01040
O          1.31800        1.15500       -2.21500
C          5.56920        2.52640       -3.62600
H          3.58220        3.50770       -3.89230
H          4.05850        1.35160       -1.76230
H          1.62660        3.10170       -2.67180
H          1.92890        2.66670       -0.96350
F          6.34940        2.80410       -2.51850
F          5.75590        1.20860       -4.00310
H          5.88160        3.18690       -4.46180
