18
TSA8_9_Cl_OMe_I
C          2.50220       -0.73050        1.20410
C          1.92140        0.64830        0.98590
Cl         1.22550       -1.99450        1.13690
H          3.21370       -0.93520        0.37600
O          2.76210        1.71640        0.96600
C          3.27780       -0.77930        2.53780
C          2.37990       -0.49660        3.71820
C          2.57150        0.56200        4.51140
O          0.71490        0.79770        0.84760
I          4.23490       -2.67760        2.82240
H          4.09770       -0.02810        2.48930
H          1.55150       -1.16660        3.92780
H          3.38480        1.25900        4.33280
H          1.90520        0.74010        5.34860
C          2.37620        3.03960        0.87700
H          2.81600        3.48810       -0.03710
H          2.75910        3.58590        1.76380
H          1.27230        3.16210        0.84070
