24
TSA8_9_CF3_CF3_OMe
C          2.82220        0.74270       -1.25460
C          1.47640        0.15900       -1.65790
C          2.79100        0.99250        0.28250
H          3.58810       -0.03710       -1.46200
C          1.39280       -1.23570       -2.21790
C          3.14970        1.96140       -2.19440
C          2.35910        3.22540       -1.89530
C          1.45330        3.71920       -2.74630
O          0.45550        0.82230       -1.53440
O          4.53440        2.21670       -2.40790
H          2.83360        1.60950       -3.20310
H          2.52160        3.75700       -0.96430
H          1.24300        3.23310       -3.69350
H          0.91010        4.62410       -2.49250
F          4.00450        1.39800        0.78760
F          1.83590        1.93680        0.61630
F          2.46410       -0.18960        0.92500
F          0.08240       -1.56290       -2.52050
F          2.15250       -1.31780       -3.37020
F          1.87650       -2.13870       -1.28910
C          5.25520        2.64760       -1.27940
H          6.09680        3.27700       -1.63360
H          5.70730        1.77260       -0.76960
H          4.67330        3.29200       -0.59120
