24
TSA8_9_CF3_CF3_OMe
C          2.00530        0.06180       -0.08820
C          1.51300        0.19160       -1.34510
C          1.86940        1.06310        1.03350
H          2.54470       -0.84190        0.17670
C          1.67400       -0.91250       -2.36510
C          3.65200        2.83120       -3.11760
C          2.87690        2.58950       -2.04470
C          1.37000        2.51600       -2.14970
O          0.83050        1.29850       -1.74430
O          5.01040        2.92150       -3.05590
H          3.18640        2.96910       -4.08820
H          3.32270        2.45610       -1.06620
H          1.03950        2.70530       -3.19330
H          0.94220        3.32280       -1.52010
F          3.13020        1.46830        1.42970
F          1.13090        2.17610        0.68590
F          1.24470        0.44860        2.10170
F          0.42180       -1.33250       -2.77500
F          2.36260       -0.42480       -3.46040
F          2.36100       -2.00430       -1.86190
C          5.78120        2.78330       -1.91920
H          6.84880        2.91980       -2.18600
H          5.64940        1.76780       -1.48840
H          5.50330        3.55490       -1.17000
