19
TSA8_9_Cl_CCl3_NO2
C          2.10310       -1.17960       -1.82030
C          0.94940       -2.13380       -1.58870
Cl         1.64880        0.40850       -1.12920
H          3.00380       -1.53670       -1.27450
C          1.08890       -3.33260       -0.67180
C          2.43300       -1.03070       -3.32630
C          3.57020       -0.05260       -3.52620
C          3.42010        1.07940       -4.22090
O         -0.12390       -1.90380       -2.12910
N          2.79730       -2.30870       -3.91120
H          1.52010       -0.64930       -3.83920
H          4.53980       -0.27490       -3.08910
H          2.46800        1.34180       -4.67160
H          4.25950        1.75670       -4.34010
Cl         2.35840       -4.43620       -1.25380
Cl         1.51360       -2.78460        0.97010
Cl        -0.43390       -4.26190       -0.56280
O          3.76790       -2.89530       -3.53520
O          2.07180       -2.81500       -4.88500
