19
TSA8_9_NH2_CCl3_I
C          1.86510        0.26740        0.17020
C          1.49480        0.61580        1.44050
N          2.19080       -1.03380       -0.29870
H          1.91120        1.03310       -0.59200
C          1.14500        2.06260        1.78000
C          4.19730       -1.46570        3.93900
C          3.47670       -1.30660        2.82440
C          1.97620       -1.43970        2.82500
O          1.40230       -0.22140        2.52130
I          6.29330       -1.22380        3.90540
H          3.72200       -1.70630        4.88590
H          3.98350       -1.05420        1.89870
H          1.62280       -1.72240        3.83880
H          1.61280       -2.25150        2.17340
H          2.16430       -1.88310        0.26100
H          2.44500       -1.14610       -1.29100
Cl         2.26170        2.62430        3.05210
Cl         1.23640        3.24840        0.44010
Cl        -0.51140        2.12420        2.42920
