20
TSA8_9_Me_F_CCl3
C          1.65590        0.01120       -0.01300
C          1.40510       -1.26320       -0.38260
C          1.92780        1.18250       -0.91660
H          1.62800        0.23550        1.04950
F          1.09350       -2.14880        0.60010
C          2.85620       -3.14970       -4.39230
C          2.94680       -2.74300       -3.11550
C          2.34730       -1.45200       -2.64160
O          1.41620       -1.73350       -1.66080
C          3.46050       -4.45160       -4.85220
H          2.33410       -2.52820       -5.11550
H          3.46810       -3.35930       -2.38780
H          1.84530       -0.91480       -3.47570
H          3.18030       -0.83020       -2.25010
H          1.84690        0.95490       -1.99280
H          2.93730        1.58890       -0.69950
H          1.17510        1.97000       -0.70520
Cl         3.16060       -4.67950       -6.59390
Cl         5.22310       -4.45120       -4.58050
Cl         2.73040       -5.82060       -3.97240
