20
TSA8_9_Me_F_CCl3
C          2.01530       -1.82760       -1.46510
C          0.78470       -0.93270       -1.70620
C          3.08830       -0.99960       -0.74030
H          1.71660       -2.64310       -0.77180
F         -0.33490       -1.66540       -2.07480
C          2.44380       -2.43710       -2.83750
C          2.62180       -1.30810       -3.86810
C          1.35150       -0.45000       -3.91100
O          1.05680        0.10220       -2.63850
C          3.65790       -3.41040       -2.82960
H          1.57670       -3.04880       -3.17730
H          3.49150       -0.66800       -3.61090
H          0.48920       -1.03530       -4.30170
H          1.51650        0.38070       -4.62810
H          3.44910       -0.15320       -1.35990
H          3.94260       -1.63470       -0.43950
H          2.66320       -0.58260        0.19780
Cl         3.79860       -4.18940       -4.43100
Cl         5.22950       -2.62030       -2.50790
Cl         3.41800       -4.71330       -1.63410
