24
TSA8_9_Et_OH_CHF2
C          2.44020       -1.27910        0.82750
C          1.23720       -0.65010        1.51430
C          2.45620       -0.73200       -0.63130
H          3.34240       -0.89360        1.35040
O          1.40010        0.19370        2.55670
C          2.38770       -2.83090        1.06140
C          1.34110       -3.50370        0.19990
C          0.26970       -4.10780        0.72410
O          0.10580       -0.89900        1.12610
C          3.73360       -3.58160        0.95480
H          2.12440       -2.95800        2.13810
H          1.46380       -3.49970       -0.87910
H          0.10810       -4.13640        1.79700
H         -0.45780       -4.58070        0.07240
C          3.66590       -1.07530       -1.48990
H          2.44820        0.37870       -0.55380
H          1.53510       -1.03230       -1.17680
H          4.60880       -0.81740       -0.96290
H          3.61530       -0.48820       -2.43160
H          3.64780       -2.13090       -1.80000
H          2.27450        0.42340        2.90020
F          4.22350       -3.67770       -0.32590
F          4.68360       -2.98670        1.76560
H          3.58320       -4.62240        1.31540
