26
TSA8_9_CHF2_Et_CHF2
C          2.49490       -1.47110       -0.59730
C          1.48110       -1.24210        0.51270
C          2.61580       -0.18120       -1.44260
H          3.48520       -1.61530       -0.11450
C          1.89980       -1.25140        1.96230
C          2.15900       -2.79870       -1.36390
C          0.84480       -2.73490       -2.11690
C         -0.19470       -3.51350       -1.80120
O          0.31060       -1.02210        0.23670
C          3.26440       -3.27770       -2.32510
H          2.09440       -3.58750       -0.57900
H          0.73860       -2.04620       -2.94850
H         -0.13920       -4.22280       -0.98180
H         -1.11640       -3.44090       -2.36980
F          3.65380       -0.25690       -2.34880
F          1.44000        0.11900       -2.10580
H          2.84820        0.66710       -0.76300
C          2.44480       -2.61290        2.38880
H          1.02430       -1.01180        2.60500
H          2.67390       -0.47100        2.12350
H          1.67090       -3.39700        2.24770
H          2.72540       -2.57790        3.46270
H          3.34830       -2.88540        1.80510
F          3.39340       -2.45650       -3.42910
F          4.47760       -3.36570       -1.66560
H          3.00140       -4.29150       -2.69760
