26
TSA8_9_CHF2_Et_CHF2
C          1.96450       -0.13300        0.02850
C          1.50500       -1.23530        0.70110
C          1.88800        0.34340       -1.40700
H          2.50400        0.59650        0.62670
C          1.76930       -1.30200        2.19220
C          2.02440       -4.42490       -2.18010
C          1.79540       -3.16740       -1.77140
C          0.52840       -2.78630       -1.04540
O          0.81520       -2.31470        0.21610
C          3.28830       -4.79180       -2.89860
H          1.28970       -5.20380       -1.99580
H          2.54470       -2.40730       -1.96600
H         -0.11220       -3.68540       -0.92220
H         -0.10390       -2.07260       -1.59920
F          3.17150        0.47660       -1.90240
F          1.16190       -0.42080       -2.27890
H          1.41440        1.34790       -1.39940
C          2.61370       -2.52490        2.54090
H          0.79610       -1.36540        2.72430
H          2.30060       -0.40110        2.57130
H          2.09680       -3.45910        2.23380
H          2.78210       -2.56010        3.63790
H          3.59870       -2.46770        2.03000
F          3.39470       -4.06360       -4.06960
F          4.38220       -4.53240       -2.09300
H          3.27320       -5.87340       -3.14780
