26
TSA8_9_CHF2_Et_CHF2
C          2.45590       -1.79280       -0.62080
C          1.27100       -1.70630        0.39520
C          2.45510       -0.51100       -1.47920
H          3.42400       -1.79800       -0.07560
C          1.67740       -1.37170        1.83630
C          2.34770       -3.14160       -1.39110
C          0.93010       -3.36790       -1.94920
C         -0.14000       -2.88570       -0.95440
O          0.39670       -2.82490        0.35080
C          3.42410       -3.41660       -2.45290
H          2.48700       -3.92090       -0.60680
H          0.74060       -2.90090       -2.93960
H         -1.00810       -3.57580       -0.98490
H         -0.54090       -1.88820       -1.25510
F          3.58090       -0.44290       -2.27740
F          1.32320       -0.42420       -2.26880
H          2.48220        0.37390       -0.80800
C          2.41920       -2.52320        2.51900
H          0.75740       -1.15310        2.41850
H          2.31350       -0.46060        1.83990
H          1.77970       -3.43070        2.55010
H          2.67100       -2.23470        3.56110
H          3.36250       -2.76660        1.98880
F          3.28050       -2.58990       -3.55230
F          4.68700       -3.25660       -1.91110
H          3.32460       -4.46530       -2.80620
