17
TSA8_9_Br_H_CH2F
C          2.31800       -2.17780        0.85290
C          0.98930       -1.62670        0.40970
Br         3.60450       -0.71700        0.98170
H          2.17590       -2.58320        1.87840
H          0.13010       -1.70380        1.06810
C          2.80160       -3.33560       -0.05960
C          3.07330       -2.86530       -1.47400
C          2.39970       -3.34760       -2.52290
O          0.86290       -1.08110       -0.67550
C          4.06570       -3.99610        0.50960
H          2.00310       -4.11250       -0.06280
H          3.84010       -2.11590       -1.64680
H          1.62590       -4.09840       -2.39820
H          2.62370       -2.98760       -3.52180
F          4.43000       -5.07900       -0.27180
H          3.87100       -4.36050        1.54090
H          4.91320       -3.27930        0.54220
