20
TSA8_9_H_Et_Br
C          1.98730       -0.03460       -0.22070
C          1.62920        0.29540       -1.47720
H          2.22160        0.70380        0.53510
H          2.03760       -1.07450        0.08720
C          1.28940       -0.79110       -2.46900
C          2.27540        3.93160       -3.49120
C          2.86440        3.47580       -2.38060
C          2.08670        2.72600       -1.33990
O          1.54540        1.58600       -1.91120
Br         3.28480        4.88410       -4.80510
H          1.21570        3.76820       -3.66270
H          3.92510        3.65120       -2.22490
H          1.26690        3.37350       -0.96400
H          2.77300        2.49570       -0.50190
C         -0.14240       -0.64510       -2.97430
H          1.40340       -1.80230       -2.02000
H          1.98800       -0.71540       -3.32850
H         -0.85930       -0.74420       -2.13300
H         -0.35580       -1.44250       -3.71690
H         -0.28470        0.34170       -3.46440
