20
TSA8_9_Cl_CBr3_CHF2
C          1.98760       -0.69740       -2.33480
C          0.83380       -1.67730       -2.27620
Cl         1.68190        0.55620       -1.09170
H          2.93180       -1.21440       -2.05710
C          1.02970       -3.10490       -1.80030
C          2.15080       -0.02600       -3.72850
C          3.29560        0.96460       -3.68210
C          3.11340        2.27120       -3.89960
O         -0.28530       -1.28700       -2.57770
C          2.42470       -1.02360       -4.86960
H          1.20450        0.50880       -3.97120
H          4.29740        0.60470       -3.46440
H          2.12930        2.67340       -4.11890
H          3.95860        2.95010       -3.85670
Br         1.69320       -3.10000        0.02130
Br        -0.63710       -4.10710       -1.81400
Br         2.29550       -4.06660       -2.90780
F          3.58440       -1.74140       -4.63240
F          1.36520       -1.89660       -5.03530
H          2.54650       -0.46530       -5.82320
