19
TSA8_9_OMe_H_CN
C          1.57480       -0.01100        0.04190
C          1.37830       -0.48820        1.41060
O          1.63000       -0.79820       -1.04960
H          1.50830        1.03880       -0.09720
H          1.43110        0.25960        2.22430
C          1.72160       -4.84390        0.62350
C          1.48460       -3.57820        0.28850
C          0.58730       -2.70860        1.11130
O          1.40250       -1.82350        1.80370
C          2.78180       -5.54180       -0.05420
H          1.18840       -5.31270        1.44770
H          2.04790       -3.14190       -0.52900
H          0.03800       -3.29640        1.86640
H         -0.19340       -2.19690        0.49970
C          0.86450       -0.55080       -2.19720
H          1.32620       -1.02140       -3.08820
H          0.77240        0.53990       -2.42350
H         -0.14950       -1.00170       -2.07360
N          3.64050       -6.07360       -0.61770
