19
TSA8_9_OMe_H_CN
C          2.30800       -1.72690        0.08930
C          1.21850       -0.98650        0.93420
O          2.24170       -1.52250       -1.32770
H          3.30180       -1.34890        0.41660
H          1.65810       -0.12510        1.48220
C          2.23480       -3.23510        0.42470
C          0.79600       -3.69800        0.23510
C         -0.13930       -2.84120        1.11510
O          0.56130       -1.84600        1.84650
C          3.15140       -4.08360       -0.34750
H          2.50040       -3.37290        1.49760
H          0.50870       -3.60260       -0.83590
H         -0.60360       -3.53730        1.84260
H         -0.96920       -2.39450        0.52380
C          1.06160       -0.90140       -1.80430
H          1.03540       -1.01530       -2.90820
H          1.06900        0.18710       -1.58330
H          0.13550       -1.38780       -1.43370
N          3.86000       -4.78420       -0.93600
