22
TSA8_9_Et_NO2_F
C          1.88460        0.08500       -0.17940
C          1.44650        0.92600       -1.16700
C          1.91540        0.24370        1.32360
H          2.26550       -0.88400       -0.48740
N          1.52490        0.47530       -2.52440
C          2.49790        4.86300        0.32450
C          2.18390        3.56720        0.43280
C          0.81690        3.04890        0.06500
O          0.90360        2.17310       -0.99640
F          3.74310        5.29170        0.65450
H          1.77060        5.58830       -0.03050
H          2.94220        2.87850        0.78490
H          0.18080        3.89790       -0.26510
H          0.26930        2.60190        0.91500
C          3.33310        0.03010        1.84690
H          1.26180       -0.54000        1.76370
H          1.56240        1.20510        1.70050
H          3.70460       -0.97710        1.55950
H          3.33670        0.10070        2.95540
H          4.02070        0.79950        1.43680
O          1.13900        1.18300       -3.40410
O          2.02370       -0.70510       -2.82970
