22
TSA8_9_OMe_Br_OMe
C          1.54550        0.05090        0.19930
C          1.15830       -1.08400       -0.38610
O          1.74850        1.15450       -0.55890
H          1.65610        0.09540        1.27940
Br         0.79360       -2.63330        0.68990
C         -0.73230       -0.87910       -4.60170
C         -0.68230       -0.79290       -3.26050
C          0.04390       -1.80050       -2.41840
O          1.01070       -1.10060       -1.73200
O         -1.33180        0.05870       -5.38620
H         -0.26390       -1.72320       -5.09780
H         -1.15090        0.03610       -2.74130
H          0.52590       -2.58330       -3.04310
H         -0.68080       -2.28440       -1.73100
C          1.96090        2.39990       -0.01730
H          2.08330        3.13520       -0.83960
H          2.87590        2.39800        0.61060
H          1.08210        2.70010        0.59450
C         -1.82980        1.27210       -4.95440
H         -2.23670        1.82880       -5.82390
H         -1.01320        1.87600       -4.50270
H         -2.64500        1.12080       -4.21590
