23
TSA8_9_NO2_OH_Et
C          2.42510       -1.05290        1.83710
C          1.29300       -0.06640        1.47960
N          2.87670       -1.70640        0.62350
H          3.25870       -0.47020        2.29390
O          1.73350        0.86410        0.53590
C          1.88060       -2.07500        2.87870
C          1.21690       -1.29800        4.02950
C          0.18920       -0.31350        3.46610
O          0.83350        0.61710        2.62460
C          2.93850       -3.02470        3.49400
H          1.08480       -2.68930        2.39960
H          1.98130       -0.72650        4.60200
H         -0.27370        0.23610        4.31180
H         -0.63570       -0.84150        2.93330
O          3.99300       -1.54060        0.23310
O          2.04170       -2.43200       -0.09090
H          1.10780        0.76360       -0.22530
C          3.57920       -4.00800        2.51610
H          2.42890       -3.63980        4.26910
H          3.73750       -2.43510        3.99460
H          2.79900       -4.61210        2.00680
H          4.24800       -4.69420        3.07770
H          4.20570       -3.49160        1.76820
