17
TSA8_9_CCl3_H_F
C          1.69940       -0.31730        1.66290
C          0.96560        0.85280        1.04140
C          1.52180       -1.61360        0.80540
H          2.77860       -0.05110        1.60770
H          1.53390        1.71340        0.70220
C          1.40550       -0.47250        3.19260
C         -0.00350       -0.85060        3.58830
C         -1.03600       -0.00490        3.51980
O         -0.23960        0.83180        0.85370
F          2.25990       -1.42400        3.72110
H          1.65890        0.47880        3.70950
H         -0.18050       -1.84250        3.99420
H         -0.91350        1.01460        3.17440
H         -2.02120       -0.32710        3.84060
Cl        -0.16200       -2.21280        0.76890
Cl         2.01550       -1.30060       -0.88440
Cl         2.56290       -2.94460        1.38290
