17
TSA8_9_CCl3_H_F
C          1.74560       -0.58220        2.11510
C          1.30580        0.82100        1.64750
C          1.63000       -1.63330        0.96130
H          2.82850       -0.54300        2.36760
H          1.64510        1.62170        2.34350
C          0.98670       -0.87660        3.43620
C         -0.51850       -0.66600        3.28570
C         -0.76610        0.72790        2.69120
O         -0.09730        0.88600        1.44920
F          1.25770       -2.13690        3.93520
H          1.33380       -0.13940        4.19420
H         -0.96930       -1.44900        2.64780
H         -0.45980        1.52400        3.40690
H         -1.85690        0.85140        2.52880
Cl         2.20350       -3.23920        1.48850
Cl        -0.00080       -1.83870        0.26050
Cl         2.69910       -1.13750       -0.38120
