17
TSA8_9_CCl3_Br_I
C          1.65210       -1.00050       -1.46940
C          0.68080       -1.34600       -0.31640
C          1.58200        0.53920       -1.77380
H          2.69040       -1.17530       -1.11110
Br         1.14870       -2.95130        0.69390
C          1.37350       -2.02500       -2.61340
C         -0.10780       -2.07060       -2.97930
C         -0.93510       -2.30220       -1.70780
O         -0.68140       -1.31530       -0.71980
I          2.57730       -1.92090       -4.38610
H          1.61960       -3.03290       -2.21300
H         -0.42190       -1.14700       -3.49830
H         -0.75600       -3.32260       -1.30530
H         -2.00990       -2.26450       -1.98100
Cl        -0.00190        1.13870       -2.34070
Cl         1.95270        1.44230       -0.27530
Cl         2.81560        1.06720       -2.94540
