17
TSA8_9_Me_F_Cl
C          1.63830       -1.85260        0.42010
C          0.91590       -0.78320        1.25890
C          1.33290       -1.62670       -1.07130
H          2.73710       -1.74060        0.54860
F          1.36270       -0.75910        2.57240
C          1.20770       -3.24270        0.94010
C         -0.31810       -3.35390        0.96140
C         -0.88910       -2.17300        1.75850
O         -0.49590       -0.92980        1.19690
Cl         1.92700       -4.58240        0.00300
H          1.56610       -3.35120        1.98760
H         -0.72930       -3.34370       -0.07000
H         -0.59440       -2.23650        2.82980
H         -1.99670       -2.23850        1.73360
H          0.24750       -1.69250       -1.28980
H          1.86990       -2.36860       -1.69770
H          1.68140       -0.61580       -1.37290
