17
TSA8_9_I_NH2_CN
C          2.90790        1.22950        1.27860
C          1.44550        1.45610        0.79590
I          3.23170       -0.89710        1.42300
H          3.62970        1.58250        0.50920
N          1.43350        2.37100       -0.34210
C          3.08590        1.99120        2.60240
C          2.11190        1.42470        3.63550
C          0.72340        1.21250        3.00620
O          0.57800        1.96250        1.81520
C          4.45360        2.03160        3.13340
H          2.80590        3.04990        2.41150
H          2.45590        0.44890        4.05340
H         -0.03070        1.54000        3.75090
H          0.52150        0.13700        2.80040
H          1.72450        3.32570       -0.02750
H          0.46020        2.42530       -0.71780
N          5.51800        2.08810        3.58440
