17
TSA8_9_H_NO2_CN
C          1.55440        1.70670       -1.01850
C          2.07590        0.69560       -2.02100
H          2.29030        2.06120       -0.26270
H          0.77910        1.16500       -0.42340
N          3.38420        0.34390       -2.09800
C          0.92000        2.87560       -1.83390
C         -0.56090        2.86560       -1.60710
C         -1.35040        2.19310       -2.44950
O          1.27940        0.22150       -2.82210
C          1.50380        4.20920       -1.65970
H          1.10110        2.70040       -2.91550
H         -0.97530        3.31770       -0.71010
H         -0.92840        1.68320       -3.31460
H         -2.41070        2.11960       -2.26120
O          3.75660       -0.36710       -2.98330
O          4.26010        0.80300       -1.23150
N          1.92830        5.28970       -1.56710
