20
TSA8_9_CF3_OH_NH2
C          2.46510        1.61960       -0.48980
C          1.43090        0.76680       -1.20410
C          2.64410        1.11410        0.96410
H          3.43930        1.46300       -1.00440
O          1.78010        0.00630       -2.26470
C          2.12230        3.13460       -0.65240
C          0.84100        3.55010        0.04500
C         -0.21760        4.01140       -0.62750
O          0.27010        0.75530       -0.82420
N          3.22960        3.97990       -0.19920
H          2.01800        3.30460       -1.74990
H          0.77810        3.48590        1.12600
H         -0.20360        4.10020       -1.70890
H         -1.11330        4.30440       -0.08920
F          3.65190        1.80270        1.61060
F          1.47420        1.23600        1.69210
F          2.99840       -0.22390        0.93980
H          2.68650       -0.02080       -2.60180
H          3.28520        3.99290        0.84320
H          3.05730        4.96320       -0.51250
