20
TSA8_9_CF3_OH_NH2
C          2.03200        0.23090       -0.15230
C          1.59830        0.73310       -1.34980
C          1.88190        0.64220        1.29910
H          2.61470       -0.68440       -0.22250
O          1.92110        0.03220       -2.46350
C          1.94400        5.00570       -0.84410
C          1.74470        3.74320       -0.43750
C          0.51540        2.96450       -0.83870
O          0.86550        1.86310       -1.58830
N          3.10920        5.71740       -0.46490
H          1.21170        5.50100       -1.47540
H          2.49200        3.26780        0.18880
H         -0.13340        3.60150       -1.47730
H         -0.13020        2.68130        0.00890
F          3.14210        0.86440        1.82150
F          1.11950        1.75110        1.54260
F          1.30740       -0.41200        1.98420
H          2.43560       -0.78820       -2.45500
H          3.83000        5.28360        0.13080
H          3.24530        6.68480       -0.79090
