20
TSA8_9_I_Et_I
C          1.87770       -0.15510        0.08820
C          1.53770       -1.41260       -0.24470
I          1.97280        1.43060       -1.31430
H          2.09910        0.10080        1.12020
C          1.45210       -2.48770        0.81430
C          2.34480       -4.43640       -2.09350
C          2.97160       -3.25830       -2.16580
C          2.22370       -1.99420       -2.48570
O          1.25260       -1.73180       -1.53350
I          3.41750       -6.19560       -1.64030
H          1.27490       -4.50690       -2.26340
H          4.04330       -3.20890       -1.99640
H          1.73660       -2.10960       -3.47730
H          2.93680       -1.14640       -2.54910
C          0.03820       -3.04780        0.91190
H          1.73970       -2.09330        1.81380
H          2.15550       -3.30640        0.55870
H         -0.66740       -2.24850        1.21700
H          0.00810       -3.85200        1.67720
H         -0.28440       -3.47330       -0.06310
