17
TSA8_9_I_CN_NH2
C          1.68540       -0.06890        0.05060
C          1.57630       -1.40140        0.30150
I          1.90130        0.89920       -1.82900
H          1.53160        0.64540        0.85580
C          1.31150       -1.85240        1.63970
C          1.12570       -3.55010       -3.83020
C          1.35670       -2.53490       -2.98830
C          0.65290       -2.39850       -1.67970
O          1.58210       -2.36310       -0.65430
N          1.84560       -3.64370       -5.04650
H          0.39270       -4.31660       -3.58870
H          2.08310       -1.77740       -3.24940
H         -0.06390       -3.23650       -1.51220
H          0.04350       -1.47940       -1.69290
N          1.09720       -2.25340        2.70290
H          2.56470       -2.94640       -5.29160
H          1.68090       -4.43630       -5.68200
