20
TSA8_9_Br_CBr3_CH2F
C          3.19590       -1.65020       -0.37180
C          1.80240       -1.66280        0.22460
Br         3.67600        0.19220       -0.80000
H          3.90990       -1.99650        0.40630
C          1.57340       -2.11490        1.65130
C          3.31030       -2.61990       -1.58120
C          2.45910       -2.17370       -2.75210
C          1.45490       -2.91810       -3.22510
O          0.85610       -1.29420       -0.45570
C          4.76610       -2.79910       -2.04290
H          2.97390       -3.62180       -1.22880
H          2.66920       -1.22080       -3.22880
H          1.20790       -3.87770       -2.78200
H          0.86940       -2.56370       -4.06720
Br         2.54950       -0.97130        2.87600
Br        -0.30600       -2.04510        2.14710
Br         2.17610       -3.94390        1.88090
F          5.30200       -1.62080       -2.53210
H          4.80980       -3.56340       -2.84840
H          5.39170       -3.15820       -1.19820
