20
TSA8_9_Br_CBr3_CH2F
C          1.96930       -0.20510        0.10930
C          1.57350       -1.48880        0.33450
Br         2.23980        0.69250       -1.56690
H          2.15340        0.46320        0.93750
C          1.37260       -2.01440        1.75000
C          3.74170       -3.61070       -2.70340
C          3.16060       -2.55080       -2.12280
C          1.66360       -2.44260       -1.98030
O          1.31470       -2.40930       -0.64510
C          5.23230       -3.70650       -2.82070
H          3.13620       -4.42410       -3.09360
H          3.78460       -1.75210       -1.73430
H          1.17720       -3.33420       -2.43050
H          1.25570       -1.57120       -2.52430
Br         1.70870       -0.77320        3.21790
Br        -0.45570       -2.62970        1.93800
Br         2.55000       -3.53140        2.01380
F          5.71720       -2.65100       -3.57120
H          5.50730       -4.66020       -3.31770
H          5.69240       -3.68400       -1.80990
