20
TSA8_9_Br_CBr3_CH2F
C          3.14950       -1.71020       -0.52870
C          1.66220       -1.87770       -0.07270
Br         3.33970        0.07010       -1.29750
H          3.84260       -1.75460        0.33820
C          1.48820       -2.18940        1.42450
C          3.50490       -2.83810       -1.52310
C          2.51210       -2.85370       -2.70050
C          1.09660       -2.48570       -2.22460
O          0.94250       -2.82370       -0.86240
C          4.96420       -2.84010       -1.99630
H          3.35350       -3.79030       -0.96680
H          2.78380       -2.16760       -3.53220
H          0.34580       -3.01580       -2.84560
H          0.89930       -1.39720       -2.37350
Br         2.24040       -0.77110        2.51620
Br        -0.39990       -2.29950        1.85260
Br         2.32130       -3.87600        1.90780
F          5.26290       -1.71300       -2.74000
H          5.14790       -3.73570       -2.62740
H          5.64490       -2.88840       -1.12000
