20
TSA8_9_H_NH2_OMe
C          2.01960       -1.70220        1.81960
C          1.84080       -1.46940        0.33610
H          3.09290       -1.58060        2.08040
H          1.45750       -0.91810        2.37280
N          2.50530       -2.21330       -0.58030
C          1.52170       -3.08460        2.29850
C          0.05990       -3.30120        1.96740
C         -0.90810       -2.51190        2.44240
O          1.09410       -0.57970       -0.04260
O          2.29810       -4.10290        1.69110
H          1.64960       -3.08760        3.40920
H         -0.21700       -4.13460        1.32700
H         -0.68330       -1.67280        3.09210
H         -1.94290       -2.70860        2.18050
H          2.37450       -2.03670       -1.58760
H          3.16140       -2.95280       -0.29420
C          2.41340       -5.22230        2.54510
H          3.18780       -5.03700        3.32020
H          2.73130       -6.09470        1.93830
H          1.44170       -5.50260        3.01160
