20
TSA8_9_H_NH2_OMe
C          2.09590       -1.67640        1.84400
C          1.45520       -1.30100        0.49130
H          3.20600       -1.63330        1.83090
H          1.75780       -0.89340        2.55810
N          1.93840       -2.12370       -0.61570
C          1.58540       -3.04180        2.33570
C          0.08810       -3.22100        1.99220
C         -0.57370       -1.88240        1.63610
O          0.02470       -1.26570        0.49680
O          2.33600       -4.07700        1.72370
H          1.74610       -3.02130        3.44110
H         -0.01940       -3.86190        1.08920
H         -0.55870       -1.18740        2.50280
H         -1.63870       -2.08650        1.39970
H          1.61660       -3.11090       -0.51430
H          2.98310       -2.09600       -0.64060
C          2.38440       -5.21580        2.55740
H          3.18600       -5.09930        3.31760
H          2.62210       -6.09820        1.92940
H          1.40590       -5.43480        3.04330
