21
TSA8_9_CN_Et_F
C          1.63820       -0.02340        0.05090
C          1.44390       -0.77230        1.18120
C          1.77310       -0.51560       -1.30020
H          1.57560        1.05420        0.14480
C          1.26760       -0.02930        2.48430
C          3.80490       -4.19550        0.44180
C          3.06510       -3.13780        0.10200
C          1.57800       -3.10640        0.30980
O          1.27170       -2.12730        1.22440
F          5.13990       -4.20200        0.18940
H          3.35690       -5.06800        0.90320
H          3.55870       -2.28250       -0.34770
H          1.22760       -4.07850        0.72810
H          1.05280       -2.96240       -0.65580
N          1.88170       -0.87710       -2.39720
C          1.33070       -0.88940        3.75320
H          0.25920        0.39570        2.42820
H          2.01040        0.79820        2.58050
H          0.55680       -1.68200        3.72260
H          1.11660       -0.24060        4.63220
H          2.33400       -1.35120        3.89640
