24
TSA8_9_Et_CN_Me
C          1.50630       -0.72840       -1.74240
C          2.47480       -1.80220       -1.29020
C          2.15800        0.67470       -1.92700
H          0.76950       -0.62900       -0.90870
C          2.21750       -2.49760       -0.05600
C          0.71000       -1.21510       -2.99220
C         -0.46410       -0.30650       -3.26550
C         -1.72240       -0.73510       -3.12240
O          3.46680       -2.07090       -1.94390
C          1.55970       -1.34910       -4.27410
H          0.32710       -2.23090       -2.74480
H         -0.28720        0.71710       -3.58130
H         -1.93760       -1.74960       -2.79770
H         -2.54890       -0.06340       -3.32100
C          3.20200        1.01890       -0.86540
H          1.34850        1.43740       -1.90960
H          2.68170        0.75580       -2.89840
H          2.79470        0.91420        0.15920
H          3.55510        2.06170       -1.01850
H          4.08560        0.35350       -0.98250
N          1.98880       -3.05450        0.93570
H          2.41440       -2.04030       -4.13120
H          1.95010       -0.37140       -4.62170
H          0.94230       -1.76640       -5.09690
