14
TSA8_9_Br_H_Br
C          2.41260       -1.74210       -0.51930
C          1.24170       -0.86440       -0.17630
Br         3.09320       -1.21690       -2.26720
H          3.22360       -1.56580        0.22140
H          0.35080       -0.87750       -0.79610
C          2.02360       -3.23380       -0.45860
C          0.94990       -3.59000       -1.45910
C         -0.23940       -4.06720       -1.07980
O          1.28370       -0.12920        0.79720
Br         3.57480       -4.35820       -0.78120
H          1.67780       -3.45680        0.57560
H          1.14620       -3.45770       -2.51880
H         -0.47820       -4.21550       -0.03120
H         -0.98740       -4.31300       -1.82640
