20
TSA8_9_Cl_CCl3_CCl3
C          3.15020       -0.47750        1.59850
C          1.63310       -0.10400        1.71620
Cl         3.38700       -1.26640        0.01050
H          3.77500        0.43870        1.58820
C          1.36610        1.38300        2.01420
C          3.54800       -1.38000        2.79700
C          2.62780       -2.62050        2.85160
C          1.20660       -2.27740        2.37960
O          0.92560       -0.92190        2.64780
C          5.05350       -1.74530        2.92930
H          3.30590       -0.77540        3.69940
H          2.98640       -3.48320        2.25070
H          0.47580       -2.93550        2.89290
H          1.08880       -2.48440        1.28950
Cl         2.03850        1.86120        3.59660
Cl         2.06650        2.41970        0.74170
Cl        -0.39140        1.67980        2.03410
Cl         5.32810       -2.61430        4.46530
Cl         5.66000       -2.78990        1.61310
Cl         6.05800       -0.27050        2.97800
