20
TSA8_9_Cl_CHF2_CBr3
C          3.21510        1.15140       -1.07010
C          1.75680        0.79440       -1.26030
Cl         3.74920        0.48380        0.50290
H          3.78630        0.62290       -1.86040
C          1.33970       -0.09340       -2.39950
C          3.45200        2.68810       -1.22680
C          2.76240        3.45870       -0.11540
C          1.76830        4.31940       -0.35780
O          0.91370        1.21720       -0.48230
C          4.94940        3.11340       -1.33190
H          3.00090        2.96750       -2.20690
H          3.08280        3.31190        0.91180
H          1.41400        4.49950       -1.36770
H          1.30120        4.85210        0.46400
F         -0.02840       -0.30310       -2.38280
F          1.69080        0.49540       -3.60040
H          1.85320       -1.07330       -2.30970
Br         5.06510        5.01470       -1.72660
Br         6.00100        2.81700        0.27850
Br         5.84200        2.21130       -2.80520
