18
TSA8_9_OH_Br_Me
C          3.12000        0.98870       -1.12180
C          1.63670        0.75160       -1.27090
O          3.55670        0.50210        0.12190
H          3.64440        0.44230       -1.94050
Br         0.97930       -0.33400       -2.70110
C          3.48650        2.48650       -1.27160
C          2.87390        3.32510       -0.17020
C          2.01140        4.31300       -0.42790
O          0.84350        1.23100       -0.47600
C          5.00810        2.67730       -1.25490
H          3.12100        2.83100       -2.26610
H          3.14330        3.12050        0.86240
H          1.71570        4.55090       -1.44490
H          1.59350        4.89320        0.38820
H          3.59610       -0.48720        0.04530
H          5.47730        2.09450       -2.07610
H          5.44130        2.34380       -0.28730
H          5.25900        3.74940       -1.40560
