18
TSA8_9_OH_Br_Me
C          1.71610        0.02770       -0.13640
C          1.36450        0.59650       -1.30660
O          2.08510        0.74670        0.94080
H          1.68740       -1.05490       -0.05040
Br         0.82220       -0.55790       -2.73300
C          4.17620        3.81450       -1.54810
C          3.44250        2.85890       -0.95920
C          1.94150        2.96530       -0.85090
O          1.34530        1.93780       -1.55940
C          5.66240        3.68300       -1.66910
H          3.69830        4.70150       -1.95620
H          3.93530        1.97690       -0.56050
H          1.59820        3.92410       -1.29460
H          1.61160        2.97090        0.20620
H          2.30900        0.30770        1.77270
H          5.91310        2.77510       -2.25810
H          6.12260        3.60800       -0.66160
H          6.07590        4.57200       -2.18990
