20
TSA8_9_OH_CCl3_NH2
C          1.64010        0.05440       -0.12160
C          1.48510        1.02350       -1.05870
O          1.85900        0.33740        1.17750
H          1.56560       -0.99250       -0.38930
C          1.18330        0.70280       -2.51410
C          2.80330        4.89530       -1.35380
C          3.25940        3.94590       -0.52530
C          2.32050        3.01380        0.18110
O          1.57460        2.35580       -0.77990
N          3.70020        5.74190       -2.05260
H          1.73520        5.01600       -1.50960
H          4.32840        3.82190       -0.37950
H          1.64430        3.58540        0.85030
H          2.94370        2.32910        0.78690
H          1.95460       -0.37210        1.82870
Cl         2.45670        1.42920       -3.52790
Cl         1.09400       -1.03580       -2.92840
Cl        -0.37340        1.44700       -2.95800
H          4.71990        5.63680       -1.94870
H          3.33310        6.44910       -2.70190
