16
TSA8_9_NO2_Cl_H
C          1.73490       -1.71210       -0.36020
C          1.07010       -1.09380        0.84770
N          1.59270       -0.82600       -1.50840
H          2.82090       -1.79780       -0.13300
Cl         2.01710       -0.73120        2.28210
C          1.26810       -3.16570       -0.66130
C         -0.18520       -3.35540       -1.03050
C         -1.18230       -3.26820       -0.14570
O         -0.10700       -0.77310        0.82080
H          1.87490       -3.51510       -1.52530
H          1.51100       -3.83380        0.19350
H         -0.42770       -3.62180       -2.05530
H         -0.99480       -3.05430        0.90020
H         -2.20540       -3.43700       -0.46540
O          2.01290        0.29050       -1.44810
O          1.04540       -1.24230       -2.63140
