16
TSA8_9_NO2_Cl_H
C          1.95700       -0.09030        0.02770
C          1.23390       -1.12210        0.49860
N          2.26530        0.09590       -1.35260
H          2.31880        0.64920        0.73780
Cl         0.92450       -1.19580        2.23800
C         -0.12130       -5.28900       -1.08250
C         -0.38650       -3.97940       -1.11840
C         -0.10850       -3.08190        0.05220
O          0.75350       -2.07920       -0.33670
H         -0.33590       -5.91050       -1.94620
H          0.30480       -5.75340       -0.19860
H         -0.81720       -3.55050       -2.01840
H          0.33710       -3.66030        0.89270
H         -1.06660       -2.63410        0.39260
O          2.90170        1.04770       -1.68540
O          1.84680       -0.74950       -2.27110
