16
TSA8_9_I_NH2_Cl
C          3.05800        1.34870        0.82580
C          1.57830        1.65900        0.89360
I          3.32190       -0.60360       -0.04240
H          3.51680        2.07260        0.11720
N          1.06970        2.72640        0.23090
C          3.83270        1.51100        2.16310
C          3.50360        0.50310        3.24500
C          2.36240        0.51060        3.93930
O          0.82340        0.92930        1.51590
Cl         5.58440        1.38520        1.81190
H          3.68110        2.53650        2.56450
H          4.24660       -0.24430        3.50970
H          1.59590        1.25560        3.76840
H          2.20050       -0.22970        4.71650
H          0.05960        2.92960        0.26510
H          1.67860        3.35290       -0.31550
