20
TSA8_9_NH2_CF3_CN
C          2.41230       -1.34010        1.03840
C          1.84620       -2.35400        0.04890
N          1.51120       -0.44900        1.79630
H          2.94510       -0.69900        0.30620
C          0.41520       -2.63650       -0.32080
C          3.49840       -1.93860        1.98550
C          4.44160       -0.81820        2.30810
C          5.28350       -0.41660        1.34910
O          2.67940       -2.93250       -0.63760
C          3.06480       -2.63690        3.21310
H          4.09190       -2.71220        1.45470
H          4.39620       -0.28910        3.25910
H          5.30430       -0.95060        0.39670
H          5.92960        0.43550        1.48310
H          0.55920       -0.34080        1.40750
H          1.92640        0.51780        1.75980
F          0.21600       -4.00350       -0.29240
F         -0.51520       -2.04140        0.49870
F          0.21430       -2.19500       -1.61980
N          2.74460       -3.15980        4.18620
