16
TSA8_9_H_OH_CN
C          2.18140        1.92310        0.41170
C          2.26020        1.89240       -1.10140
H          1.47110        1.08450        0.56720
H          2.91310        1.32670        1.01010
O          2.93680        0.90820       -1.72410
C          1.51420        3.20490        0.99950
C          0.17550        2.80250        1.54160
C         -0.87340        2.75590        0.71940
O          1.64720        2.71190       -1.77200
C          2.27120        3.94280        2.02910
H          1.36870        3.96400        0.20450
H          0.09590        2.40900        2.54860
H         -0.77960        3.07900       -0.31550
H         -1.81560        2.36030        1.07000
H          2.96150        0.86620       -2.69140
N          2.80730        4.57030        2.83630
