16
TSA8_9_H_OH_CN
C          2.13820        2.00080        0.73350
C          1.41310        1.51090       -0.55320
H          1.73210        1.43750        1.60390
H          3.22790        1.78750        0.67870
O          2.33600        1.19060       -1.56020
C          1.83120        3.49030        0.91120
C          0.31540        3.62360        1.07730
C         -0.42060        2.84180       -0.02930
O          0.46030        2.44290       -1.06170
C          2.53550        4.12660        2.03100
H          2.14810        4.03070       -0.00680
H         -0.01410        3.21160        2.06210
H         -1.19490        3.51710       -0.44840
H         -0.95530        1.95250        0.37470
H          2.82660        2.02590       -1.77900
N          3.07460        4.66020        2.90520
