18
TSA8_9_CN_CBr3_F
C          1.89820       -1.50500       -0.78600
C          2.45380       -2.06740        0.50190
C          2.41640       -0.18890       -1.19550
H          0.85400       -1.29350       -0.53120
C          1.78090       -1.72230        1.82960
C          1.89590       -2.50520       -1.97360
C          0.67070       -2.22260       -2.79850
C         -0.52920       -2.49570       -2.26180
O          3.30960       -2.94150        0.46190
F          3.05430       -2.38880       -2.73080
H          1.81670       -3.56460       -1.63670
H          0.74660       -1.77770       -3.78500
H         -0.58740       -2.95230       -1.27210
H         -1.44940       -2.26890       -2.77790
N          2.77540        0.84660       -1.57110
Br         2.10250        0.13430        2.28090
Br        -0.14970       -2.00720        1.77850
Br         2.43050       -2.82040        3.28930
