18
TSA8_9_CN_CBr3_F
C          1.66100       -0.06960        0.09470
C          1.59480       -1.33030        0.59620
C          1.78120        0.26300       -1.30540
H          1.59300        0.78820        0.74800
C          1.40270       -1.57970        2.08380
C          1.76400       -3.97220       -3.24100
C          1.74820       -2.84480       -2.52490
C          0.88170       -2.69110       -1.30880
O          1.64890       -2.44130       -0.19130
F          2.54480       -4.06000       -4.34860
H          1.15340       -4.82390       -2.95720
H          2.36720       -2.01360       -2.84200
H          0.30860       -3.62230       -1.11250
H          0.14780       -1.88140       -1.48260
N          1.87700        0.57430       -2.41670
Br         1.79060       -0.07200        3.25810
Br        -0.44670       -2.08930        2.35100
Br         2.47970       -3.07450        2.68240
