17
TSA8_9_I_CH2F_Cl
C          2.05090        2.04030        0.01940
C          0.82050        2.22000       -0.83560
I          1.81780        0.22800        1.15400
H          2.94220        1.91320       -0.63450
C          0.93540        2.23170       -2.33270
C          2.27470        3.25580        0.94150
C          3.51750        3.07440        1.77490
C          3.47940        3.06400        3.11100
O         -0.27390        2.35450       -0.30710
Cl         2.47750        4.74710       -0.02310
H          1.38340        3.38600        1.59460
H          4.47380        2.94970        1.27460
H          2.54400        3.18580        3.64830
H          4.39490        2.93130        3.67810
F         -0.30590        2.40650       -2.91950
H          1.36510        1.26820       -2.67850
H          1.60260        3.06110       -2.64730
