17
TSA8_9_I_CH2F_Cl
C          1.82340        0.15640       -0.06800
C          1.48370        1.45630       -0.03930
I          2.02880       -1.01970        1.68270
H          1.99020       -0.35010       -1.01380
C          1.31450        2.23000       -1.31880
C          2.22130        4.88680        0.94550
C          2.92260        3.79310        1.26030
C          2.27140        2.61440        1.92870
O          1.26240        2.08370        1.14440
Cl         3.00300        6.25250        0.16830
H          1.15880        4.94540        1.16590
H          3.98480        3.75130        1.03680
H          1.83630        2.95110        2.89360
H          3.03460        1.83780        2.14750
F          0.02680        2.72630       -1.39110
H          1.50390        1.59840       -2.21330
H          2.02960        3.07770       -1.34040
