15
TSA8_9_Br_CN_I
C          1.56390       -1.76250       -0.33980
C          2.31720       -1.84520        0.95790
Br         2.58480       -0.81280       -1.69780
H          0.67880       -1.12430       -0.12870
C          1.68930       -1.31490        2.14720
C          1.05800       -3.15610       -0.79150
C         -0.31660       -3.03590       -1.39230
C         -1.38450       -2.97700       -0.58260
O          3.35880       -2.47410        1.04810
I          2.38000       -4.30880       -2.03800
H          0.93380       -3.81020        0.10110
H         -0.45040       -2.97510       -2.46670
H         -1.26240       -3.03370        0.49870
H         -2.38520       -2.87450       -0.98270
N          1.17990       -0.88100        3.09010
