22
TSA8_9_NH2_CHF2_Me
C          2.24600        1.92000        0.23530
C          1.11840        2.41090       -0.65260
N          1.84150        0.67830        0.89830
H          3.13970        1.69600       -0.39150
C          1.30670        2.52280       -2.13910
C          2.64360        2.98670        1.28980
C          3.70860        2.43710        2.21270
C          3.50580        2.31620        3.52900
O          0.04110        2.70620       -0.15480
C          3.17960        4.26480        0.62870
H          1.73990        3.25580        1.88290
H          4.66440        2.13000        1.79720
H          2.56410        2.61100        3.98270
H          4.28850        1.91720        4.16540
H          0.99570        0.83650        1.49270
H          1.62200       -0.04950        0.17970
F          0.14460        2.96770       -2.74600
F          2.32860        3.41060       -2.41840
H          1.56620        1.52630       -2.55250
H          4.08300        4.04160        0.01990
H          3.45090        5.01060        1.40660
H          2.41080        4.72300       -0.02690
