21
TSA8_9_OH_CBr3_Me
C          2.90850       -1.32970       -1.63730
C          1.67140       -2.09510       -1.19430
O          2.68140        0.04500       -1.46130
H          3.77860       -1.62450       -1.00350
C          1.70120       -3.02720        0.00250
C          3.32120       -1.60340       -3.11660
C          2.23210       -1.26980       -4.12370
C          1.75360       -0.03390       -4.29850
O          0.61920       -1.91210       -1.78890
C          3.75740       -3.06270       -3.30660
H          4.20940       -0.97490       -3.34850
H          1.82550       -2.06190       -4.74800
H          0.97940        0.14390       -5.03790
H          2.12370        0.80870       -3.72700
H          2.82870        0.24570       -0.49990
Br         2.22260       -2.04540        1.59070
Br        -0.04460       -3.81330        0.34870
Br         2.95240       -4.48360       -0.25600
H          2.91240       -3.75860       -3.12000
H          4.59450       -3.30650       -2.61840
H          4.11570       -3.21960       -4.34680
