21
TSA8_9_OH_CBr3_Me
C          1.85700       -0.24650        0.01760
C          1.51100       -1.46400       -0.47010
O          2.18490        0.78140       -0.79110
H          1.85660       -0.05080        1.08210
C          1.08170       -2.60560        0.43790
C          3.70010       -2.11920       -4.63600
C          2.89010       -2.35160       -3.59570
C          2.29910       -1.22120       -2.80660
O          1.49850       -1.74450       -1.80700
C          4.28830       -3.25150       -5.41950
H          3.94080       -1.09880       -4.92260
H          2.65570       -3.37590       -3.31460
H          1.67750       -0.59330       -3.47970
H          3.13920       -0.62320       -2.39860
H          2.41700        1.64520       -0.42350
Br         1.06680       -2.24200        2.35410
Br        -0.70900       -3.15970       -0.05360
Br         2.27750       -4.10340        0.15100
H          3.47690       -3.86340       -5.86750
H          4.90680       -3.89090       -4.75460
H          4.92930       -2.85250       -6.23310
