20
TSA8_9_CHF2_Cl_CCl3
C          2.72120        0.68980        1.09700
C          1.30520        1.15240        0.81650
C          2.88960       -0.74780        0.55540
H          3.38050        1.33480        0.47850
Cl         1.02020        2.49670       -0.27920
C          3.08360        0.95550        2.60720
C          2.18370        0.18560        3.56030
C          1.32670        0.80100        4.38160
O          0.34750        0.59580        1.33040
C          4.57660        0.75620        3.01610
H          2.89580        2.04670        2.74040
H          2.23420       -0.89750        3.58970
H          1.23780        1.88270        4.39550
H          0.70340        0.21630        5.05030
F          4.21380       -1.13140        0.52930
F          2.14510       -1.66540        1.27340
H          2.54110       -0.77420       -0.49990
Cl         4.84040        1.45820        4.63900
Cl         5.08730       -0.95380        3.12890
Cl         5.67960        1.61690        1.90670
