20
TSA8_9_CHF2_Cl_CCl3
C          1.70190        0.13390        0.03600
C          1.32660        1.29930        0.63310
C          2.05660       -1.24700        0.54420
H          1.75550        0.17280       -1.04930
Cl         0.97010        2.63480       -0.45580
C          3.77990        1.48330        4.15130
C          3.06550        0.87000        3.19300
C          1.56230        0.98030        3.12500
O          1.18080        1.60460        1.95790
C          5.28260        1.38350        4.20630
H          3.26660        2.07250        4.90650
H          3.58470        0.28840        2.43890
H          1.19600        1.60620        3.96670
H          1.04170        0.01630        3.25000
F          3.35210       -1.54490        0.16580
F          1.93480       -1.45540        1.89140
H          1.37500       -1.96960        0.04860
Cl         5.90280        2.31920        5.59010
Cl         5.78780       -0.31540        4.40290
Cl         6.00360        2.04260        2.71410
