20
TSA8_9_CBr3_Me_Cl
C          1.37610       -0.76540        1.43110
C          2.75210       -1.40310        1.64440
C          1.21430       -0.09430        0.02740
H          1.33330        0.08770        2.14700
C          3.29260       -2.56870        0.86480
C          0.19040       -1.68340        1.86830
C         -0.00970       -2.93610        1.05210
C         -1.13420       -3.15750        0.36320
O          3.47630       -0.92730        2.50630
Cl         0.38630       -2.16770        3.57750
H         -0.73790       -1.07480        1.83320
H          0.76080       -3.69640        1.03460
H         -1.94340       -2.43320        0.35630
H         -1.25070       -4.07450       -0.20430
Br        -0.41610        0.96360       -0.04440
Br         2.67190        1.15530       -0.28180
Br         1.16480       -1.29530       -1.50100
H          3.51590       -3.40430        1.56070
H          4.23190       -2.26310        0.35750
H          2.60070       -2.93870        0.09360
