20
TSA8_9_CBr3_Me_Cl
C          1.43060       -0.13850        0.04830
C          1.82700       -1.22400        0.75530
C          2.11330        0.44980       -1.17100
H          0.53560        0.36570        0.39510
C          3.05140       -2.03790        0.43430
C         -0.91410       -3.73360        3.54600
C         -0.06450       -3.51440        2.53620
C         -0.12040       -2.25810        1.71330
O          1.09030       -1.60340        1.82680
Cl        -0.80730       -5.20690        4.49380
H         -1.67940       -3.00590        3.79910
H          0.69240       -4.25730        2.30070
H         -0.92910       -1.58680        2.07190
H         -0.33470       -2.52940        0.65670
Br         1.12150        2.00870       -1.76150
Br         3.91660        1.04890       -0.78000
Br         2.13580       -0.79900       -2.65490
H          3.14670       -2.87110        1.16120
H          3.96860       -1.42250        0.50580
H          2.96910       -2.48490       -0.57570
