20
TSA8_9_CBr3_Me_Cl
C          1.23770       -0.98120        1.49550
C          1.93790       -2.25730        0.92200
C          1.33590        0.30900        0.60840
H          1.75530       -0.78700        2.46000
C          3.38870       -2.19670        0.46510
C         -0.25070       -1.37470        1.80840
C         -0.36790       -2.88660        2.02510
C          0.05670       -3.58140        0.70310
O          1.11970       -2.93710        0.00400
Cl        -0.88880       -0.53630        3.25290
H         -0.90790       -1.14220        0.94280
H          0.31630       -3.17390        2.85480
H         -0.82720       -3.53580        0.03240
H          0.28900       -4.65220        0.88240
Br         0.35080        1.80940        1.35350
Br         3.15370        0.98160        0.46120
Br         0.65500        0.01190       -1.18960
H          3.75300       -3.22830        0.27920
H          4.01880       -1.74300        1.25810
H          3.47710       -1.62720       -0.48180
