20
TSA8_9_CBr3_CCl3_H
C          2.12910       -1.73550        0.09050
C          1.39790       -0.99070        1.20290
C          2.02620       -1.00440       -1.29070
H          3.20740       -1.73330        0.36320
C          2.11780       -0.57230        2.47490
C          1.76120       -3.25280        0.04020
C          0.35800       -3.62610       -0.37190
C         -0.71460       -3.42940        0.39950
O          0.21110       -0.72760        1.07560
H          2.44470       -3.73390       -0.68900
H          1.97830       -3.72980        1.02010
H          0.21910       -4.11750       -1.33080
H         -0.63390       -2.98580        1.38390
H         -1.69380       -3.73890        0.04860
Br         2.69190        0.81590       -1.17500
Br         3.12260       -1.88090       -2.63570
Br         0.21780       -0.88370       -2.00390
Cl         2.75120       -2.01200        3.31170
Cl         3.48150        0.51940        2.12440
Cl         1.02360        0.27550        3.60560
