20
TSA8_9_CBr3_CCl3_H
C          2.15450       -1.77830        0.02410
C          1.25530       -1.17000        1.17340
C          1.97930       -1.08960       -1.37730
H          3.22390       -1.61420        0.28060
C          2.06220       -0.55910        2.34890
C          1.95660       -3.31090        0.00310
C          0.48000       -3.71240       -0.07050
C         -0.39830       -2.74650        0.73900
O          0.36280       -2.12900        1.74690
H          2.55820       -3.83530       -0.76710
H          2.31890       -3.68590        0.98500
H          0.07680       -3.81860       -1.09830
H         -1.23890       -3.31450        1.18740
H         -0.87880       -1.97130        0.10820
Br         2.35520        0.81000       -1.30180
Br         3.26470       -1.82260       -2.63830
Br         0.23770       -1.22690       -2.22410
Cl         2.99070       -1.81960        3.20920
Cl         3.19930        0.71750        1.85060
Cl         0.92940        0.18130        3.50970
