20
TSA8_9_NO2_CH2F_CN
C          1.62750       -0.01100        0.05290
C          1.60880       -0.74550        1.32240
N          1.50800       -0.61530       -1.27180
H          1.33510        1.08240       -0.00790
C          2.46360       -0.43410        2.60470
C          1.26550       -4.62210        0.46080
C          1.48670       -3.45050        1.04910
C          0.27590       -2.60220        1.49550
O          0.47320       -1.30300        1.82730
C          2.38400       -5.37290       -0.03370
H          0.24760       -4.97290        0.31570
H          2.52350       -3.12710        1.14030
H         -0.11870       -3.04100        2.39880
H         -0.43860       -2.56030        0.66560
O          1.41130        0.05010       -2.26870
O          1.63410       -1.90960       -1.39600
F          2.28410       -1.46300        3.53990
H          2.12750        0.50740        3.05360
H          3.59430       -0.35310        2.60890
N          3.31410       -5.94550       -0.41140
