20
TSA8_9_NO2_CH2F_CN
C          1.37570       -1.56900       -0.12200
C          1.38200       -0.77230        1.22900
N          2.12240       -0.99490       -1.23410
H          0.31610       -1.37990       -0.39990
C          2.60410       -0.50120        2.13690
C          1.41440       -3.11640        0.04310
C          1.07170       -3.47620        1.48780
C         -0.03740       -2.54190        2.01950
O          0.27420       -1.14210        2.04160
C          2.64530       -3.81680       -0.36540
H          0.62290       -3.52290       -0.62290
H          1.96780       -3.38830        2.13370
H         -0.27860       -2.85720        3.05290
H         -0.93660       -2.69190        1.38590
O          1.96460        0.16160       -1.48670
O          2.58970       -1.77630       -2.18570
F          2.80620       -1.49910        3.07220
H          2.35550        0.40830        2.73200
H          3.54150       -0.29060        1.58970
N          3.59550       -4.40030       -0.67730
