20
TSA8_9_CF3_Br_Me
C          1.43960       -2.21360       -1.28360
C          0.93960       -1.68830        0.07840
C          1.57830       -1.02330       -2.26830
H          2.46730       -2.61870       -1.15300
Br         1.32620       -2.86100        1.59170
C          0.50030       -3.37570       -1.72110
C         -0.96440       -2.92610       -1.67780
C         -1.27230       -2.35060       -0.29000
O         -0.41640       -1.26480        0.03330
C          0.84280       -3.99450       -3.07940
H          0.61270       -4.18820       -0.96850
H         -1.17780       -2.17120       -2.46140
H         -1.22210       -3.14510        0.48520
H         -2.32070       -1.98650       -0.29100
F          2.44280       -0.08880       -1.72470
F          2.11940       -1.43830       -3.47020
F          0.36930       -0.39810       -2.50940
H          0.68100       -3.27530       -3.90740
H          0.18690       -4.87170       -3.26610
H          1.89820       -4.33950       -3.08640
