20
TSA8_9_CBr3_CHF2_Br
C          1.38950       -0.46820        0.13470
C          1.94160       -1.14680        1.18400
C          2.04690       -0.07890       -1.17910
H          0.35210       -0.17530        0.21700
C          3.37580       -1.62720        1.20400
C         -1.05330       -0.94000        4.79700
C         -0.53950       -1.72630        3.84520
C         -0.13880       -1.19090        2.50160
O          1.20250       -1.44980        2.29340
Br        -1.55180       -1.67290        6.49060
H         -1.19910        0.12260        4.62740
H         -0.40830       -2.78630        4.04150
H         -0.32590       -0.09560        2.44170
H         -0.74340       -1.70940        1.72750
Br         0.73380        0.81130       -2.29880
Br         3.49950        1.18590       -0.95730
Br         2.65350       -1.62880       -2.17470
F          4.25480       -0.56480        1.19020
F          3.61380       -2.35470        2.35720
H          3.57760       -2.29610        0.34630
