18
TSA8_9_CBr3_OH_H
C          0.99010       -1.02670        0.82010
C          1.30690       -2.16500       -0.12950
C          1.74630        0.27390        0.42350
H         -0.09660       -0.80030        0.73530
O          2.55890       -2.66430       -0.21100
C          1.28050       -1.45750        2.28180
C          0.52960       -2.70250        2.68410
C         -0.80560       -2.75780        2.70410
O          0.41680       -2.64780       -0.81420
H          2.36600       -1.66020        2.40130
H          1.00370       -0.64640        2.98710
H          1.09610       -3.58330        2.97290
H         -1.40830       -1.89820        2.42780
H         -1.30440       -3.67410        3.00160
Br         1.20520        1.76610        1.54600
Br         3.68360        0.11720        0.55060
Br         1.31080        0.77980       -1.40270
H          2.77120       -3.39780       -0.80530
