18
TSA8_9_CBr3_OH_H
C          1.43200       -0.01310       -0.00900
C          1.15540       -1.23770        0.48770
C          2.35760        0.27860       -1.16900
H          0.93930        0.83500        0.45950
O          1.70440       -2.37120       -0.01520
C         -0.59150       -2.79140        4.47120
C          0.23980       -2.71770        3.42860
C         -0.25090       -2.49050        2.02940
O          0.28960       -1.31850        1.53340
H         -0.19630       -2.96340        5.46730
H         -1.66440       -2.68450        4.34470
H          1.30760       -2.83230        3.59350
H         -1.35860       -2.40590        1.99730
H          0.03230       -3.37170        1.41600
Br         2.37940        2.18700       -1.51200
Br         4.17990       -0.25870       -0.76830
Br         1.74330       -0.58710       -2.79610
H          2.33870       -2.39880       -0.74170
