16
TSA8_9_F_NH2_F
C          2.09650        0.01110       -0.30280
C          1.48890        0.32390       -1.46660
F          2.62020        0.93940        0.53520
H          2.16140       -1.02770        0.00460
N          0.95580       -0.72100       -2.26190
C          3.78670        2.40740       -3.33960
C          3.50290        2.58790       -2.04500
C          2.07790        2.72630       -1.58350
O          1.35210        1.60300       -1.93280
F          5.07720        2.28270       -3.74530
H          2.99380        2.35900       -4.07980
H          4.30830        2.63410       -1.31870
H          1.63260        3.60660       -2.09170
H          2.01840        2.92180       -0.49330
H          0.50720       -0.50250       -3.16520
H          1.03100       -1.70780       -1.97370
