18
TSA8_9_CN_H_Me
C          1.65880        0.06270       -0.00590
C          1.49460        1.13760        0.79590
C          1.77660       -1.32080        0.39300
H          1.68400        0.24590       -1.07230
H          1.44500        2.10030        0.30090
C          2.77370       -0.11630        4.84450
C          2.39680       -0.38310        3.58740
C          1.10580        0.13600        3.03430
O          1.37860        1.15980        2.15330
C          4.07270       -0.62130        5.38680
H          2.14340        0.49460        5.48500
H          3.04540       -0.95730        2.93360
H          0.47440        0.55180        3.85320
H          0.49470       -0.66550        2.57180
N          1.87470       -2.44300        0.66110
H          4.91750       -0.25020        4.76850
H          4.07270       -1.73100        5.38700
H          4.20450       -0.26130        6.42810
