17
TSA8_9_Br_Me_I
C          3.03910        1.40230        0.83950
C          1.54240        1.58600        0.74960
Br         3.49670       -0.36520        0.15680
H          3.50430        2.14730        0.15770
C          0.97040        2.69590       -0.08150
C          3.65230        1.66370        2.24200
C          3.26780        0.67820        3.32440
C          2.06160        0.65440        3.89770
O          0.78500        0.81060        1.31130
I          5.79890        1.66230        2.06930
H          3.39970        2.69190        2.58150
H          4.01610       -0.01740        3.69260
H          1.28420        1.35370        3.61560
H          1.85240       -0.06220        4.68550
H          1.32130        3.67300        0.31150
H         -0.14020        2.67680       -0.05400
H          1.30350        2.58350       -1.13440
