23
TSA8_9_CH2F_CHF2_CCl3
C          1.89090       -0.10340        0.05260
C          1.51180       -1.34910        0.46290
C          1.95380        0.50010       -1.32560
H          2.19150        0.60330        0.82180
C          1.52810       -1.64210        1.94150
C          3.09890       -3.84800       -2.65780
C          2.58710       -2.72270       -2.13240
C          1.15280       -2.63670       -1.67270
O          1.10120       -2.39820       -0.31520
C          4.53830       -3.93440       -3.09570
H          2.46500       -4.72420       -2.76640
H          3.22790       -1.85460       -2.02280
H          0.64410       -3.60700       -1.85640
H          0.55830       -1.89270       -2.23290
F          3.24900        0.91090       -1.57760
H          1.29190        1.39100       -1.34430
H          1.63800       -0.13850       -2.15270
F          0.25470       -1.99060        2.35320
F          2.38650       -2.69760        2.18650
H          1.86340       -0.77400        2.54890
Cl         4.88210       -5.56120       -3.73610
Cl         4.87450       -2.74090       -4.37720
Cl         5.62480       -3.63440       -1.71300
