23
TSA8_9_CH2F_CHF2_CCl3
C          2.71260       -1.50370       -0.65050
C          1.35130       -1.71180        0.10220
C          2.65150       -0.15450       -1.38670
H          3.52790       -1.40670        0.10030
C          1.52690       -1.81750        1.61720
C          2.98450       -2.75910       -1.53970
C          1.77620       -3.04620       -2.46020
C          0.45120       -2.70770       -1.76460
O          0.60040       -2.82630       -0.36850
C          4.33640       -2.85670       -2.30350
H          3.00960       -3.59270       -0.80070
H          1.79810       -2.51330       -3.43430
H         -0.34280       -3.39070       -2.12980
H          0.10900       -1.67930       -2.02980
F          3.89570        0.21810       -1.85400
H          2.33830        0.63500       -0.66970
H          1.92090       -0.17220       -2.22080
F          0.28720       -1.89580        2.22440
F          2.26280       -2.94480        1.93650
H          2.05140       -0.91630        1.99900
Cl         4.53460       -4.51440       -2.93940
Cl         4.46150       -1.75920       -3.70880
Cl         5.71220       -2.55120       -1.20860
