23
TSA8_9_CCl3_CBr3_CH2F
C          2.03200       -1.95130       -0.94680
C          0.62570       -2.45370       -0.59610
C          1.98040       -0.41380       -1.30780
H          2.66260       -2.07000       -0.03840
C          0.25780       -3.00000        0.78750
C          2.64810       -2.82050       -2.11530
C          4.08490       -2.44820       -2.40750
C          4.48010       -2.00000       -3.60340
O         -0.23650       -2.41680       -1.46290
C          2.63080       -4.33370       -1.84100
H          2.02480       -2.66840       -3.02370
H          4.82550       -2.55590       -1.61920
H          3.77660       -1.87910       -4.42040
H          5.52360       -1.74940       -3.76710
Cl         1.12700       -0.10130       -2.85010
Cl         1.14340        0.55150       -0.06470
Cl         3.60190        0.32640       -1.42310
Br         0.54140       -1.70670        2.20120
Br        -1.61540       -3.51720        0.86960
Br         1.28040       -4.57020        1.26820
F          3.44200       -4.65230       -0.76680
H          3.01160       -4.87420       -2.73480
H          1.59850       -4.69570       -1.66170
