23
TSA8_9_CCl3_CBr3_CH2F
C          1.56390       -0.06700       -0.02120
C          1.44430       -1.42600       -0.05030
C          1.78880        0.86690       -1.20100
H          1.43420        0.44010        0.92420
C          1.12860       -2.23300        1.20400
C          2.93040       -4.30670       -3.41230
C          2.95020       -3.71880       -2.20870
C          2.62680       -2.26500       -2.02420
O          1.52180       -2.14200       -1.20770
C          3.27440       -5.75770       -3.56520
H          2.66470       -3.73700       -4.29850
H          3.21300       -4.30300       -1.33180
H          2.40500       -1.78300       -3.00040
H          3.51830       -1.79540       -1.56480
Cl         0.59540        0.57060       -2.49240
Cl         1.56650        2.55110       -0.65380
Cl         3.43990        0.78310       -1.85690
Br         0.94770       -1.24120        2.87490
Br        -0.54020       -3.17760        0.92690
Br         2.52590       -3.54240        1.48920
F          4.57360       -5.97960       -3.14860
H          3.18300       -6.05290       -4.63190
H          2.58000       -6.37820       -2.96070
