17
TSA8_9_CF3_F_Br
C          1.66510       -0.79780        1.47340
C          0.99630        0.45780        0.96000
C          1.56800       -1.92020        0.40950
H          2.74500       -0.56140        1.59910
F          1.73730        1.57760        0.75300
C          1.12510       -1.16080        2.88870
C         -0.33560       -1.54580        2.90950
C         -1.24460       -0.83180        3.58120
O         -0.20140        0.48080        0.72200
Br         2.15010       -2.58780        3.72140
H          1.28690       -0.26940        3.53550
H         -0.66400       -2.43110        2.37610
H         -0.96460        0.05930        4.13460
H         -2.28510       -1.13970        3.57920
F          2.24460       -3.05290        0.82010
F          0.25330       -2.25600        0.14210
F          2.14980       -1.48310       -0.76820
