17
TSA8_9_CF3_F_Br
C          1.83360       -0.00710        0.05580
C          1.14080        0.24150        1.17930
C          2.10550       -1.37660       -0.51710
H          2.23120        0.84120       -0.49390
F          0.97120        1.53560        1.56810
C         -0.23750       -2.22740        4.86740
C         -0.56830       -1.85870        3.62510
C         -0.14470       -0.53940        3.05010
O          0.61130       -0.76180        1.92040
Br        -0.80050       -3.91920        5.55670
H          0.35350       -1.57750        5.50560
H         -1.16130       -2.52830        3.00890
H          0.44930        0.04550        3.78780
H         -1.05440        0.04070        2.78310
F          3.47220       -1.56540       -0.59650
F          1.56180       -2.39620        0.24360
F          1.57020       -1.44230       -1.78930
