17
TSA8_9_CF3_F_Br
C          1.73130       -1.07270        1.83680
C          1.24650        0.37800        1.64660
C          1.48230       -1.87670        0.53390
H          2.83230       -1.06670        1.99590
F          1.72410        1.22490        2.63700
C          1.05780       -1.62400        3.12000
C         -0.45910       -1.44830        3.05810
C         -0.77680        0.02290        2.75340
O         -0.16900        0.45100        1.54350
Br         1.52610       -3.46190        3.54430
H          1.41910       -1.01830        3.98030
H         -0.90470       -2.10710        2.28650
H         -0.47380        0.67680        3.60140
H         -1.87730        0.12770        2.65480
F          2.17330       -1.27610       -0.50430
F          1.95020       -3.17090        0.65670
F          0.14440       -1.91750        0.18870
