18
TSA8_9_Me_Cl_OH
C          1.60250       -0.05580        2.23170
C          1.03090        1.06690        1.34540
C          1.49700       -1.39930        1.48910
H          2.68560        0.12500        2.40990
Cl         1.52110        2.71600        1.85360
C          0.85640       -0.05070        3.58350
C         -0.65680       -0.11140        3.34660
C         -1.05900        1.02780        2.40170
O         -0.37350        0.94710        1.15950
O          1.27990       -1.12110        4.38560
H          1.09510        0.91000        4.09720
H         -0.95110       -1.08710        2.90640
H         -0.89960        2.01660        2.88380
H         -2.14900        0.94860        2.20870
H          1.92500       -2.21640        2.10720
H          2.07630       -1.34790        0.54250
H          0.44910       -1.65520        1.23230
H          0.92560       -0.95050        5.29730
