18
TSA8_9_OH_CHF2_I
C          2.90410        1.24690       -0.18770
C          1.45230        1.54310       -0.49470
O          3.00980       -0.02630        0.39630
H          3.46490        1.26020       -1.15200
C          1.03050        1.84670       -1.90510
C          3.61930        2.29480        0.70290
C          3.12060        2.39370        2.12840
C          1.95870        2.96340        2.46010
O          0.60980        1.48540        0.38740
I          5.70810        1.78290        0.76950
H          3.57580        3.29960        0.22890
H          3.75090        2.02800        2.93390
H          1.30370        3.39480        1.71270
H          1.66580        3.02400        3.50330
H          2.92930       -0.68880       -0.33910
F         -0.33690        2.05060       -1.97610
F          1.67920        2.98390       -2.34940
H          1.29910        0.99330       -2.56260
