18
TSA8_9_F_OH_CHF2
C          1.31730       -1.66720        1.16160
C          2.70130       -2.24160        1.28610
F          1.39940       -0.30420        1.39770
H          0.94290       -1.81380        0.12440
O          3.27530       -2.85500        0.22980
C          0.32410       -2.30690        2.16290
C         -1.00180       -1.58400        2.08440
C         -1.51420       -0.93390        3.13470
O          3.31220       -2.14410        2.34040
C          0.09060       -3.80740        1.89410
H          0.74130       -2.19810        3.18960
H         -1.55540       -1.58900        1.14960
H         -0.99260       -0.90250        4.08670
H         -2.46740       -0.42390        3.04540
H          4.16730       -3.22630        0.28850
F         -0.41950       -4.00670        0.62210
F          1.26310       -4.52810        2.02980
H         -0.63760       -4.20470        2.63360
