18
TSA8_9_F_OH_CHF2
C          1.70040       -0.04310        0.26510
C          2.25020       -0.92490        1.11640
F          0.59850        0.68380        0.57210
H          2.16700        0.13150       -0.69950
O          3.38430       -1.55080        0.73600
C         -0.61350       -3.58560        2.84000
C         -0.16140       -2.57140        2.08470
C          0.40860       -1.32030        2.70400
O          1.74050       -1.20050        2.35060
C         -1.14520       -4.84670        2.22630
H         -0.58890       -3.51310        3.92300
H         -0.18560       -2.65150        1.00100
H          0.35450       -1.38830        3.81120
H         -0.18640       -0.43380        2.41370
H          3.80770       -2.20450        1.30810
F         -2.23650       -4.56440        1.42490
F         -0.15960       -5.45290        1.46860
H         -1.45820       -5.54540        3.03040
