18
TSA8_9_F_OH_CHF2
C          0.93890       -1.99620        0.77410
C          1.92780       -0.97820        1.41630
F         -0.12310       -1.31380        0.20130
H          1.45400       -2.55320       -0.03840
O          3.24650       -1.44940        1.32800
C          0.42460       -2.93020        1.87990
C         -0.28540       -2.09850        2.97110
C          0.26030       -0.65940        3.03470
O          1.64660       -0.63430        2.77680
C         -0.47470       -4.06000        1.35710
H          1.31520       -3.40360        2.34840
H         -1.38430       -2.01610        2.82040
H          0.04950       -0.23300        4.03690
H         -0.26340        0.00070        2.30570
H          3.32110       -2.22460        1.94240
F         -1.60880       -3.55000        0.74860
F          0.21800       -4.83480        0.44380
H         -0.78530       -4.71000        2.20290
