21
TSA8_9_Me_OMe_F
C          2.98810        0.38820        1.34920
C          2.08500        1.59820        1.30560
C          2.21970       -0.86610        0.91550
H          3.79870        0.53530        0.60060
O          2.37690        2.61380        0.45410
C          3.69390        0.26020        2.72710
C          2.78150        0.09290        3.92240
C          2.07260       -1.01550        4.15670
O          1.10360        1.65980        2.03560
F          4.44220        1.41020        2.92340
H          4.40720       -0.59240        2.70530
H          2.72400        0.90050        4.64650
H          1.44780       -1.07870        5.04180
H          2.11830       -1.87180        3.49450
H          1.33690       -1.05160        1.55900
H          2.88960       -1.75180        0.93390
H          1.84730       -0.73480       -0.12350
C          1.64660        3.78070        0.37520
H          2.09250        4.43790       -0.39910
H          1.67020        4.31100        1.35110
H          0.59490        3.55730        0.09480
