20
TSA8_9_CHF2_I_Me
C          1.50690       -2.56750       -0.48240
C          1.01040       -1.69650        0.68930
C          1.56010       -1.69830       -1.75890
H          2.55050       -2.88980       -0.27200
I          1.49380       -2.43380        2.65710
C          0.58600       -3.81810       -0.56720
C         -0.88110       -3.38120       -0.64570
C         -1.19280       -2.45400        0.53490
O         -0.34890       -1.31270        0.54270
C          0.92700       -4.78480       -1.70570
H          0.71360       -4.38960        0.37940
H         -1.08790       -2.85500       -1.60180
H         -1.12880       -3.00660        1.49750
H         -2.24490       -2.11550        0.44170
F          2.35900       -0.59100       -1.52860
F          2.11170       -2.39880       -2.81500
H          0.55250       -1.33730       -2.04920
H          0.74850       -4.32670       -2.69930
H          0.28110       -5.68610       -1.63520
H          1.98700       -5.10700       -1.62890
