19
TSA8_9_CBr3_NO2_Cl
C          1.34120       -1.49780        0.83690
C          2.61090       -1.49490        1.71230
C          1.54000       -0.85710       -0.58890
H          0.67330       -0.77360        1.35520
N          3.75990       -2.18240        1.43820
C          0.58020       -2.87090        0.93780
C         -0.82930       -2.84300        0.39500
C         -1.77910       -2.05390        0.90900
O          2.57330       -0.81070        2.72860
Cl         1.42350       -4.26000        0.19300
H          0.49020       -3.12650        2.01700
H         -1.09860       -3.49940       -0.42810
H         -1.57180       -1.38930        1.74110
H         -2.78110       -2.07420        0.49250
Br        -0.14660       -0.31650       -1.38890
Br         2.55420        0.79720       -0.44100
Br         2.42330       -1.94360       -1.93560
O          4.68680       -2.10600        2.18900
O          3.89040       -2.91440        0.35930
