16
TSA8_9_CN_Br_CN
C          2.53240        0.69050        1.03070
C          1.78970        1.26450       -0.21440
C          1.76130       -0.41830        1.63200
H          3.45260        0.24450        0.61820
Br         1.50180        0.22050       -1.78590
C          2.89630        1.68520        2.22280
C          2.57190        3.10170        1.91770
C          1.31680        3.51440        2.10410
O          1.44600        2.43020       -0.32440
C          4.25300        1.64650        2.80490
H          2.28860        1.42100        3.11740
H          3.31380        3.74780        1.45390
H          1.02150        4.50370        1.79900
H          0.57620        2.82240        2.50550
N          1.16050       -1.25760        2.15890
N          5.28480        1.68910        3.33180
