16
TSA8_9_CN_Br_CN
C          2.48500        0.77240        1.18380
C          1.33370        1.31330        0.28380
C          2.01900       -0.53010        1.69490
H          3.40470        0.66700        0.56570
Br         1.51080        0.55130       -1.50110
C          2.78070        1.70250        2.39890
C          2.65640        3.16590        2.01600
C          1.28740        3.33050        1.38520
O          1.32760        2.71570        0.12050
C          4.11150        1.49370        2.99650
H          2.01840        1.53710        3.18880
H          3.43470        3.47610        1.27820
H          1.06190        4.40640        1.26350
H          0.48070        2.90910        2.03810
N          1.59910       -1.51850        2.12850
N          5.14780        1.35860        3.49430
