14
TSA8_9_H_H_F
C          1.54360       -1.54820        1.56900
C          1.26550       -0.13290        1.15050
H          1.15180       -2.25880        0.80750
H          2.64440       -1.68190        1.63560
H          1.60090        0.69130        1.77200
C          0.91870       -1.86010        2.93370
C         -0.58340       -1.74470        2.88100
C         -1.25360       -0.88080        3.64910
O          0.66280        0.09930        0.11500
F          1.25000       -3.15230        3.29920
H          1.34570       -1.16640        3.69230
H         -1.13600       -2.38210        2.19680
H         -0.73590       -0.22600        4.34330
H         -2.33530       -0.82370        3.58330
