14
TSA8_9_H_H_F
C          1.99710       -0.03200        0.12870
C          1.26850        0.05740        1.24030
H          2.15890       -0.99340       -0.34940
H          2.43510        0.85900       -0.30930
H          1.11650        1.03000        1.70250
C         -0.23360       -2.99260        4.40700
C         -0.52420       -2.40110        3.24400
C         -0.05610       -1.01330        2.91720
O          0.72250       -1.05500        1.78200
F         -0.67990       -4.25010        4.65870
H          0.35800       -2.48310        5.16170
H         -1.11890       -2.93680        2.50970
H          0.53240       -0.57990        3.75690
H         -0.94630       -0.37200        2.73750
