19
TSA8_9_Br_NO2_CCl3
C          1.89330       -0.15070       -0.17730
C          1.42820       -0.91900       -1.19990
Br         2.46950        1.68170       -0.20830
H          1.94540       -0.57490        0.81950
N          1.01530       -2.25890       -0.92190
C          4.02790        0.21630       -4.41040
C          3.38440        0.35920       -3.23990
C          1.89050        0.55490       -3.16920
O          1.30910       -0.50320       -2.49860
C          5.51740       -0.00280       -4.47500
H          3.46310        0.25120       -5.33830
H          3.94980        0.31930       -2.31430
H          1.46430        0.57640       -4.19480
H          1.62000        1.52220       -2.70990
O          0.60620       -2.94700       -1.80840
O          1.09140       -2.76160        0.29290
Cl         6.03500       -0.15650       -6.17300
Cl         6.38440        1.37250       -3.74280
Cl         5.95960       -1.50210       -3.61570
