15
TSA8_9_I_CN_F
C          1.71070       -0.04900        0.08270
C          1.57770       -1.29400        0.55800
I          1.91740        0.34050       -1.99590
H          1.59010        0.81220        0.72790
C          1.26970       -1.54280        1.94780
C          0.30050       -4.76480       -2.32170
C          0.65960       -3.50740       -2.07640
C          0.44230       -2.87150       -0.75020
O          1.62750       -2.33800       -0.29590
F          0.50660       -5.28800       -3.55590
H         -0.16660       -5.37280       -1.55300
H          1.10470       -2.90650       -2.86410
H         -0.00780       -3.54540        0.01030
H         -0.27640       -2.05760       -0.94090
N          1.02260       -1.75760        3.05850
