15
TSA8_9_I_CN_F
C          1.85250       -1.85760       -1.02330
C          1.74630       -2.29890        0.45840
I          3.27350       -0.41670       -1.74700
H          1.02270       -1.16070       -1.20830
C          1.60600       -1.17000        1.38170
C          1.56360       -3.09490       -1.86890
C          0.05420       -3.35700       -1.69250
C         -0.37940       -3.08330       -0.22610
O          0.70530       -3.28280        0.67590
F          1.89080       -2.90670       -3.19780
H          2.13090       -3.98690       -1.49690
H         -0.52870       -2.62980       -2.31400
H         -1.25350       -3.72340        0.01590
H         -0.74740       -2.03530       -0.10220
N          1.47150       -0.27210        2.09450
