21
TSA8_9_F_CF3_OMe
C          3.12440        1.35320       -0.75000
C          1.72150        0.90920       -1.09470
F          3.57750        0.58490        0.30980
H          3.77840        1.16620       -1.62980
C          1.41800        0.34420       -2.45520
C          3.19180        2.87180       -0.42110
C          2.42280        3.23480        0.83530
C          1.36160        4.04810        0.80920
O          0.83150        0.99640       -0.26150
O          4.51460        3.40000       -0.38080
H          2.71500        3.37870       -1.29030
H          2.73250        2.82540        1.79120
H          1.00750        4.48360       -0.11990
H          0.83670        4.28290        1.72940
F          0.08020        0.00330       -2.55440
F          1.71390        1.28530       -3.42410
F          2.18550       -0.78610       -2.66820
C          5.39130        2.69260        0.47160
H          6.28030        3.32990        0.65510
H          5.75450        1.76630       -0.02130
H          4.95190        2.48440        1.46900
