21
TSA8_9_F_CF3_OMe
C          3.15750        1.32910       -0.57140
C          1.64450        1.11700       -0.91010
F          3.35570        0.94470        0.74470
H          3.80280        0.68780       -1.20890
C          1.43150        0.58000       -2.33000
C          3.50150        2.82580       -0.75450
C          2.60110        3.71220        0.12910
C          1.25180        3.02250        0.39310
O          0.84370        2.29120       -0.74250
O          4.87620        3.18420       -0.67130
H          3.20810        3.05070       -1.80180
H          3.03840        3.96970        1.11550
H          0.49110        3.78750        0.65120
H          1.31540        2.34340        1.27540
F          0.08190        0.36340       -2.53910
F          1.89210        1.48280       -3.27090
F          2.09710       -0.62240       -2.48610
C          5.52570        2.65740        0.46590
H          6.47980        3.20590        0.60350
H          5.78230        1.58820        0.30780
H          4.94770        2.80570        1.40220
