21
TSA8_9_OMe_Cl_CF3
C          0.71170       -1.78260        0.23170
C          1.43490       -0.65980        0.94170
O          1.57140       -2.36280       -0.73700
H         -0.21970       -1.38720       -0.24020
Cl         0.78820        0.97180        0.90120
C          0.27260       -2.87240        1.24640
C         -0.64770       -2.26670        2.28830
C         -0.33540       -2.24970        3.58750
O          2.47590       -0.87740        1.54290
C         -0.45270       -4.04990        0.56210
H          1.18470       -3.28230        1.73860
H         -1.59070       -1.83030        1.97020
H          0.59700       -2.67280        3.94770
H         -1.01990       -1.80570        4.30300
C          1.62630       -1.56250       -1.89990
H          2.19930       -2.11310       -2.67390
H          2.16570       -0.61060       -1.70310
H          0.61630       -1.37760       -2.32860
F         -1.58810       -3.60870       -0.09670
F          0.38030       -4.67300       -0.35010
F         -0.82380       -4.98530        1.51270
