21
TSA8_9_OMe_Cl_CF3
C          1.46840        0.07570       -0.11620
C          1.15740       -0.20030        1.15250
O          1.68360       -0.94020       -0.98440
H          1.51200        1.10820       -0.45320
Cl         0.81480        1.11640        2.27530
C         -0.37290       -4.41880        2.35650
C         -0.45440       -3.18590        1.83690
C          0.21850       -2.00530        2.47320
O          1.09790       -1.49590        1.54240
C         -1.00580       -5.59090        1.66670
H          0.16930       -4.58450        3.28310
H         -1.00020       -3.02480        0.91080
H          0.77680       -2.30260        3.38650
H         -0.55540       -1.25830        2.75490
C          1.83100       -0.74170       -2.33650
H          1.98210       -1.72380       -2.83010
H          2.70790       -0.09230       -2.53790
H          0.91040       -0.27610       -2.75050
F         -2.36560       -5.38220        1.52390
F         -0.43390       -5.75740        0.41840
F         -0.79820       -6.73660        2.41180
