21
TSA8_9_OMe_Cl_CF3
C          0.61390       -1.96010        0.21630
C          1.10260       -0.78730        1.10760
O          1.61970       -2.34660       -0.70340
H         -0.31760       -1.63470       -0.30290
Cl         0.00590        0.62770        1.11970
C          0.24130       -3.17980        1.09660
C         -0.54920       -2.64860        2.29100
C          0.39730       -1.77050        3.13790
O          1.47590       -1.17710        2.41610
C         -0.54260       -4.25500        0.32340
H          1.16890       -3.65570        1.49240
H         -1.40570       -2.05050        1.90710
H          0.86570       -2.45830        3.87220
H         -0.17340       -1.01280        3.71660
C          1.64320       -1.45850       -1.80110
H          2.37400       -1.83850       -2.54350
H          1.98210       -0.44690       -1.48860
H          0.65950       -1.41500       -2.32020
F         -1.72350       -3.73650       -0.17690
F          0.21940       -4.73560       -0.72660
F         -0.84030       -5.30970        1.16870
