19
TSA8_9_I_NO2_CH2F
C          2.90200        0.75860        0.87610
C          1.79010        1.39220        0.01570
I          1.94730       -0.52160        2.32710
H          3.52930        0.08690        0.25170
N          2.26250        1.91040       -1.25940
C          3.76890        1.87030        1.49890
C          2.86130        2.83780        2.26170
C          1.78960        3.37140        1.30780
O          0.99960        2.32940        0.74510
C          4.87970        1.32050        2.40210
H          4.26050        2.43230        0.67280
H          2.37620        2.33170        3.12380
H          2.25650        4.00040        0.52220
H          1.12200        4.04420        1.88490
O          1.94330        2.99690       -1.63780
O          2.89460        1.10610       -2.08600
F          5.65580        2.36040        2.88270
H          5.53120        0.63310        1.82190
H          4.45930        0.76610        3.26660
