18
TSA8_9_H_CF3_CN
C          2.07650       -1.37480       -1.19740
C          1.30700       -1.66480        0.13540
H          1.57140       -0.54480       -1.74210
H          3.11600       -1.03200       -1.01650
C          2.21470       -1.93950        1.35810
C          1.98310       -2.64350       -2.04700
C          0.50430       -2.84930       -2.40220
C         -0.39660       -2.57530       -1.18230
O          0.32800       -2.70410        0.02160
C          2.81240       -2.64420       -3.25860
H          2.33550       -3.49770       -1.42960
H          0.17300       -2.15170       -3.20950
H         -1.23280       -3.30470       -1.20190
H         -0.85540       -1.56100       -1.22460
F          1.86370       -3.12570        1.98040
F          3.55610       -2.01470        1.02470
F          2.04480       -0.90880        2.26200
N          3.45230       -2.68280       -4.22230
