18
TSA8_9_CH2F_CN_Br
C          1.69020       -0.11560        0.02520
C          1.47040       -1.28480       -0.64080
C          1.82310        1.27970       -0.53070
H          1.82130       -0.17030        1.10340
C          1.43470       -2.50320        0.12310
C          1.36910       -0.23650       -5.18460
C          1.51950       -0.03500       -3.87270
C          0.60060       -0.65900       -2.86130
O          1.32590       -1.43290       -1.98520
Br         2.55900        0.60280       -6.42190
H          0.57020       -0.86420       -5.56720
H          2.32430        0.60590       -3.52920
H         -0.14540       -1.31600       -3.35770
H          0.02010        0.11780       -2.33260
F          3.13700        1.68450       -0.40340
H          1.17940        1.96870        0.05930
H          1.54030        1.40700       -1.58220
N          1.40560       -3.48780        0.73850
