21
TSA8_9_OMe_I_CHF2
C          2.51520       -0.94870        0.72630
C          2.42630        0.45650        1.26850
O          1.20720       -1.36360        0.36580
H          3.18680       -0.89080       -0.16540
I          3.45450        2.03770        0.31690
C          3.15400       -1.95660        1.73410
C          2.40430       -2.05190        3.05380
C          1.13920       -2.47520        3.14650
O          1.74250        0.70310        2.24920
C          4.63670       -1.62180        2.00650
H          3.14590       -2.96550        1.26490
H          2.91420       -1.78180        3.97520
H          0.65910       -2.52770        4.11860
H          0.57350       -2.78040        2.27480
C          1.20660       -1.99490       -0.89700
H          1.92210       -2.84650       -0.92920
H          1.41660       -1.25800       -1.70330
H          0.19580       -2.41320       -1.08130
F          5.35850       -1.62550        0.82570
F          4.77560       -0.38940        2.62100
H          5.07310       -2.39510        2.67500
