21
TSA8_9_OMe_I_CHF2
C          1.45630        0.10480        0.11460
C          1.34610        0.64730        1.34220
O          1.52580       -1.23270       -0.08500
H          1.47120        0.77330       -0.74240
I          1.19980        2.74910        1.48060
C          3.53750       -2.89870        2.73370
C          3.03570       -1.67470        2.52050
C          1.57640       -1.38570        2.74250
O          1.30290       -0.04930        2.51650
C          4.99580       -3.18690        2.53590
H          2.88480       -3.70270        3.06340
H          3.69400       -0.87320        2.19410
H          1.34110       -1.60760        3.80530
H          0.92660       -2.03220        2.11660
C          1.56370       -1.81530       -1.33490
H          2.49370       -2.41180       -1.43290
H          1.53280       -1.06130       -2.15210
H          0.68980       -2.49070       -1.44670
F          5.35560       -2.93580        1.22440
F          5.75100       -2.39380        3.38080
H          5.19910       -4.25310        2.76860
