19
TSA8_9_CH2F_I_NO2
C          1.65860       -2.16410        0.05790
C          1.44680       -1.02750        1.03510
C          1.45540       -1.64950       -1.38020
H          2.71920       -2.48720        0.14460
I          3.02910       -0.37510        2.27030
C          0.77630       -3.39210        0.44710
C         -0.70860       -3.08900        0.42180
C         -1.46120       -3.15900        1.52540
O          0.36670       -0.46240        1.11580
N          1.04870       -4.54730       -0.39400
H          1.07130       -3.65720        1.48950
H         -1.18060       -2.80920       -0.51480
H         -1.03190       -3.43600        2.48370
H         -2.52180       -2.93640        1.47510
F          2.29830       -0.57800       -1.62080
H          0.40840       -1.32000       -1.54320
H          1.70480       -2.43270       -2.12160
O          0.75290       -4.55100       -1.55050
O          1.55630       -5.63700        0.14170
