19
TSA8_9_CH2F_I_NO2
C          1.48910       -2.33970       -0.01350
C          1.18250       -1.30640        1.08910
C          1.24630       -1.68720       -1.38860
H          2.56770       -2.60650        0.02720
I          2.07630       -1.71380        3.00850
C          0.63650       -3.60720        0.26920
C         -0.84120       -3.22670        0.42440
C         -0.96480       -2.13350        1.49330
O         -0.19940       -0.98490        1.16140
N          0.80450       -4.64940       -0.72970
H          0.97360       -4.01380        1.24980
H         -1.25930       -2.85730       -0.53580
H         -0.68450       -2.52670        2.49420
H         -2.03210       -1.83840        1.56540
F          2.04170       -0.56170       -1.51860
H          0.18800       -1.38250       -1.51830
H          1.52400       -2.38010       -2.20670
O          0.42470       -4.49380       -1.85090
O          1.31060       -5.81240       -0.37870
