17
TSA8_9_CBr3_F_Cl
C          1.83610       -0.04230        0.00030
C          1.16920       -1.18980        0.22010
C          2.10500        0.64150       -1.32730
H          2.22920        0.46630        0.87650
F          1.03420       -1.61980        1.50560
C         -0.21210       -4.86100       -2.26550
C         -0.54110       -3.61830       -1.89750
C         -0.12430       -3.04830       -0.57350
O          0.63220       -1.91640       -0.78650
Cl        -0.72000       -5.48900       -3.82490
H          0.37080       -5.50270       -1.61140
H         -1.12610       -2.99700       -2.56970
H          0.46610       -3.78920        0.01070
H         -1.03660       -2.78280        0.00320
Br         1.33890        2.41720       -1.24990
Br         4.02030        0.82020       -1.53820
Br         1.42080       -0.21120       -2.93890
