17
TSA8_9_CBr3_F_Cl
C          1.68370       -1.59870       -0.84790
C          0.76110       -1.42580        0.37960
C          1.57400       -0.34710       -1.79090
H          2.73590       -1.58970       -0.48730
F          1.12490       -2.25350        1.43280
C          1.40280       -3.02450       -1.41740
C         -0.08740       -3.26220       -1.65440
C         -0.85850       -2.91990       -0.37250
O         -0.60970       -1.58730        0.04490
Cl         2.34470       -3.48440       -2.85960
H          1.70520       -3.75260       -0.63200
H         -0.45950       -2.66860       -2.50860
H         -0.61540       -3.64170        0.43930
H         -1.94380       -3.03470       -0.57450
Br         1.99640        1.25140       -0.76310
Br         2.88800       -0.35760       -3.22070
Br        -0.16480       -0.01240       -2.59550
