16
TSA8_9_I_OH_CN
C          1.61970        0.03330       -0.01750
C          1.50940        1.07110       -0.99690
I          1.90430        0.05410        2.02780
H          1.51740       -0.97240       -0.38120
O          1.63280        0.64780       -2.28650
C          2.34490        4.90950        0.24790
C          2.22230        3.65320        0.67200
C          0.91940        2.96180        0.39800
O          0.99430        2.37690       -0.86180
C          3.65820        5.37030       -0.08640
H          1.48200        5.51270       -0.02720
H          3.10670        3.07350        0.91420
H          0.10930        3.69620        0.34160
H          0.58470        2.27010        1.18960
H          1.90230        1.38840       -2.86800
N          4.73030        5.71420       -0.34530
