17
TSA8_9_H_Br_CF3
C          2.76180       -2.17050       -1.28420
C          1.51640       -1.48100       -0.79230
H          3.65030       -1.70600       -0.80370
H          2.71160       -3.23160       -0.95870
Br         0.18180       -2.46990        0.15520
C          2.89780       -2.12920       -2.82350
C          3.04950       -0.70460       -3.31330
C          2.17220       -0.14580       -4.15270
O          1.35330       -0.28460       -0.97270
C          4.10960       -2.95780       -3.28810
H          1.98650       -2.59440       -3.26440
H          3.89780       -0.11650       -2.97360
H          1.31120       -0.69780       -4.51620
H          2.31490        0.87830       -4.48210
F          5.28360       -2.45000       -2.75710
F          3.96890       -4.27460       -2.88590
F          4.19450       -2.93120       -4.66960
