17
TSA8_9_H_Br_CF3
C          2.32580       -0.76560       -0.26380
C          1.30560       -1.29790       -0.95490
H          3.04880       -0.10100       -0.72200
H          2.44380       -0.98990        0.79130
Br         0.08120       -2.44960       -0.04500
C          3.07590       -2.54070       -3.85940
C          3.18590       -1.29220       -3.37480
C          1.96200       -0.44240       -3.16280
O          1.09140       -1.05840       -2.28000
C          4.25500       -3.44660       -4.08740
H          2.09120       -2.93130       -4.10110
H          4.15620       -0.87470       -3.12510
H          1.44920       -0.31330       -4.13920
H          2.23980        0.56740       -2.79170
F          5.44960       -2.84090       -3.73790
F          4.09560       -4.59110       -3.32890
F          4.30390       -3.79550       -5.42360
