17
TSA8_9_H_Br_CF3
C          2.81210       -1.75280       -1.40360
C          1.39510       -1.15200       -1.18510
H          3.58000       -0.95910       -1.27270
H          3.01260       -2.53720       -0.64250
Br         0.16500       -2.56310       -0.66950
C          2.89400       -2.28280       -2.84010
C          2.65710       -1.11420       -3.82490
C          1.83450        0.01600       -3.17780
O          0.83430       -0.50830       -2.33210
C          4.21360       -3.01410       -3.13370
H          2.06460       -3.01220       -2.97020
H          3.59840       -0.64870       -4.18970
H          1.37460        0.63590       -3.97480
H          2.49080        0.70060       -2.59200
F          5.29140       -2.16130       -2.96610
F          4.35630       -4.09000       -2.27540
F          4.20960       -3.48530       -4.43460
