22
TSA8_9_OMe_CF3_CN
C          1.56670        0.61330       -1.51660
C          2.07730       -0.75580       -1.92950
O          2.20430        1.10170       -0.34030
H          0.52400        0.32030       -1.27800
C          1.72190       -1.96880       -1.09780
C          1.55080        1.67470       -2.67970
C          0.30970        2.49190       -2.52560
C         -0.87060        1.87590       -2.70830
O          2.57120       -0.92790       -3.03480
C          2.74470        2.52920       -2.82270
H          1.44150        1.16670       -3.66080
H          0.34370        3.54430       -2.24920
H         -0.88500        0.82150       -2.99360
H         -1.80730        2.38920       -2.57670
C          1.33510        1.92050        0.43830
H          1.75450        2.94620        0.51990
H          1.22260        1.49050        1.45500
H          0.30180        2.03120        0.04290
F          0.35620       -2.18830       -1.18230
F          2.37140       -3.09510       -1.57180
F          2.06250       -1.77290        0.22660
N          3.64960        3.23710       -2.99290
