20
TSA8_9_NH2_OH_CH2F
C          2.29740        1.43800        1.66150
C          1.08600        2.27050        1.28580
N          2.08400        0.04580        1.25640
H          3.18900        1.81970        1.11430
O          1.19270        3.29850        0.41740
C          2.58750        1.51500        3.18410
C          3.75700        0.62160        3.53520
C          3.62690       -0.41480        4.36950
O         -0.00530        2.01240        1.77010
C          2.89870        2.95240        3.63910
H          1.68030        1.17280        3.73230
H          4.73000        0.82260        3.09520
H          2.67130       -0.65230        4.82720
H          4.48450       -1.03880        4.59810
H          1.93370        0.00000        0.22240
H          1.24740       -0.35330        1.74160
H          2.03570        3.53570        0.00760
F          4.01910        3.44590        2.99130
H          3.08250        2.96950        4.73500
H          2.04010        3.62460        3.43100
