20
TSA8_9_Cl_CF3_CCl3
C          2.02430        0.32160       -2.24770
C          0.79010       -0.45480       -2.63570
Cl         1.67610        1.07920       -0.66070
H          2.87120       -0.38110       -2.09180
C          0.82510       -1.95640       -2.74350
C          2.44030        1.40920       -3.28960
C          3.61420        2.18920       -2.72140
C          3.53410        3.49790       -2.45810
O         -0.25930        0.14100       -2.83430
C          2.82950        0.86190       -4.70090
H          1.57870        2.10150       -3.42630
H          4.54810        1.67240       -2.51850
H          2.62060        4.05460       -2.64370
H          4.39240        4.02280       -2.05130
F         -0.41940       -2.44650       -3.09820
F          1.74700       -2.34340       -3.69790
F          1.18650       -2.49630       -1.52280
Cl         1.45700        0.10420       -5.55450
Cl         3.35940        2.20370       -5.75850
Cl         4.16520       -0.32440       -4.61630
