20
TSA8_9_Cl_CF3_CCl3
C          1.89410       -0.08190       -0.19430
C          1.48030        0.01470       -1.47590
Cl         2.15000        1.31570        0.84540
H          2.05270       -1.05170        0.26650
C          1.20040       -1.21930       -2.30010
C          2.45930        1.56020       -4.74790
C          3.04530        1.72630       -3.55030
C          2.24570        2.15400       -2.35090
O          1.25970        1.22750       -2.05530
C          3.23730        1.15730       -5.97420
H          1.38920        1.73010       -4.83770
H          4.11470        1.57090       -3.43920
H          1.76350        3.12640       -2.58590
H          2.92240        2.31170       -1.48880
F         -0.11540       -1.19580       -2.72300
F          2.02390       -1.22770       -3.40850
F          1.41420       -2.38830       -1.58790
Cl         2.14140        1.04910       -7.37530
Cl         4.49370        2.36950       -6.33810
Cl         4.00900       -0.43230       -5.73970
