19
TSA8_9_I_CCl3_NO2
C          1.65480       -0.10430       -0.09260
C          1.53820       -1.23370       -0.83920
I          1.89050        1.89460       -0.77990
H          1.57970       -0.14280        0.98580
C          1.27660       -2.59240       -0.20660
C          2.58070       -2.25910       -4.76130
C          3.22170       -1.44860       -3.90160
C          2.46970       -0.50860       -3.00660
O          1.61590       -1.23690       -2.20070
N          3.27630       -3.16340       -5.61340
H          1.49520       -2.23020       -4.80800
H          4.30610       -1.46320       -3.83840
H          1.88000        0.20040       -3.62610
H          3.22080        0.04550       -2.40960
Cl         2.59420       -3.69970       -0.66670
Cl         1.15690       -2.61270        1.58030
Cl        -0.25130       -3.24300       -0.85190
O          4.46860       -3.23410       -5.59690
O          2.59410       -3.93950       -6.42620
