21
TSA8_9_CN_CCl3_CBr3
C          1.65270       -0.05680        0.05010
C          1.48460       -1.26400        0.66160
C          1.80000        0.19590       -1.35910
H          1.64920        0.84090        0.66140
C          1.46530       -1.31460        2.17270
C          3.39700       -4.28100       -1.81760
C          2.90330       -3.07860       -1.47940
C          1.43470       -2.85400       -1.27450
O          1.24410       -2.45610        0.02870
C          4.87090       -4.52130       -2.03590
H          2.71350       -5.11370       -1.95220
H          3.56820       -2.23400       -1.34080
H          0.85970       -3.79890       -1.44200
H          1.01890       -2.12220       -1.99300
N          1.92040        0.43230       -2.48520
Cl         2.45690       -0.03260        2.95000
Cl        -0.21280       -1.17280        2.69100
Cl         2.11450       -2.87260        2.76750
Br         5.14730       -6.32340       -2.69360
Br         5.59220       -3.29480       -3.35630
Br         5.86350       -4.33000       -0.38250
