21
TSA8_9_CN_CCl3_CBr3
C          2.97430       -1.51010       -0.35280
C          1.54490       -1.56140        0.28120
C          2.86170       -0.41050       -1.34250
H          3.73990       -1.19940        0.38800
C          1.52910       -1.52360        1.82630
C          3.25980       -2.93320       -0.94860
C          2.25070       -3.14430       -2.06760
C          0.83360       -2.85040       -1.58110
O          0.75980       -2.66820       -0.17420
C          4.65430       -3.45960       -1.39870
H          3.02020       -3.64080       -0.12740
H          2.50060       -2.50970       -2.95160
H          0.26590       -3.76660       -1.83830
H          0.37390       -2.00200       -2.13080
N          2.74010        0.42580       -2.13100
Cl         2.35630       -0.07230        2.45620
Cl        -0.15820       -1.44900        2.39580
Cl         2.29310       -2.97420        2.53070
Br         4.43140       -5.31630       -1.99010
Br         5.48650       -2.49950       -2.86070
Br         5.90060       -3.56500        0.08290
