21
TSA8_9_Cl_CF3_OMe
C          1.91500       -0.01850       -0.18300
C          1.51320       -0.15210       -1.47390
Cl         2.25500        1.48340        0.66960
H          2.03370       -0.90010        0.43730
C          1.22870       -1.52340       -2.04070
C          4.01180        2.47990       -3.65630
C          3.38770        2.00480       -2.56180
C          1.89920        2.13950       -2.37730
O          1.32800        0.88210       -2.35180
O          5.34710        2.34020       -3.87770
H          3.43090        2.99230       -4.41740
H          3.94720        1.48650       -1.79100
H          1.45390        2.69290       -3.23050
H          1.64710        2.72500       -1.47450
F         -0.08320       -1.57390       -2.47680
F          2.06560       -1.74150       -3.12090
F          1.42850       -2.53780       -1.12040
C          6.23640        1.66900       -3.06250
H          7.24810        1.71120       -3.51690
H          5.93830        0.60270       -2.96670
H          6.27610        2.14550       -2.06030
