21
TSA8_9_Cl_CF3_OMe
C          3.23140        0.23270       -1.64810
C          1.67170        0.10500       -1.58230
Cl         3.76120        0.98850       -0.10940
H          3.70870       -0.77010       -1.68760
C          1.18020       -1.26900       -2.05170
C          3.59640        1.05190       -2.91380
C          2.92240        2.43670       -2.90470
C          1.58360        2.37590       -2.14820
O          0.97540        1.11390       -2.32260
O          4.96100        1.08500       -3.31630
H          3.09270        0.49890       -3.73520
H          3.52990        3.24590       -2.45010
H          0.91550        3.17920       -2.52060
H          1.72290        2.58060       -1.06230
F         -0.19380       -1.33610       -1.91440
F          1.51040       -1.47800       -3.37860
F          1.74770       -2.26520       -1.27700
C          5.84820        1.49520       -2.30190
H          6.81600        1.75430       -2.77750
H          6.05040        0.65820       -1.60100
H          5.51120        2.41340       -1.77840
