20
TSA8_9_Br_CBr3_CHF2
C          1.78940       -0.12530       -0.08400
C          1.53200       -1.03750       -1.05560
Br         2.04530        1.76040       -0.35140
H          1.82020       -0.41300        0.95730
C          1.25370       -2.49820       -0.73830
C          2.08940       -1.13460       -5.19400
C          2.88520       -0.60690       -4.25020
C          2.31220        0.13500       -3.07910
O          1.47530       -0.71200       -2.37810
C          2.61510       -1.89910       -6.37820
H          1.01240       -1.01730       -5.10990
H          3.96430       -0.71270       -4.31310
H          1.73420        1.01130       -3.44230
H          3.16260        0.47880       -2.45470
Br         1.30520       -3.01110        1.14250
Br        -0.50440       -2.96050       -1.41050
Br         2.55950       -3.59040       -1.66460
F          3.99720       -1.98140       -6.37470
F          2.08970       -3.17750       -6.36060
H          2.29150       -1.38950       -7.30910
