20
TSA8_9_Br_CBr3_CHF2
C          2.60540       -1.54190       -2.40620
C          1.30720       -1.06470       -1.67240
Br         4.10780       -0.53110       -1.68490
H          2.81700       -2.60970       -2.18730
C          0.51560       -2.19160       -0.98350
C          2.42760       -1.35140       -3.92970
C          2.06440        0.11120       -4.25190
C          1.18810        0.71500       -3.14280
O          0.44070       -0.30190       -2.51190
C          3.60090       -1.85230       -4.78710
H          1.54480       -1.96670       -4.21170
H          2.94350        0.77700       -4.39250
H          0.51420        1.48200       -3.57700
H          1.81340        1.25200       -2.39090
Br         1.60650       -3.09990        0.34140
Br        -1.00450       -1.43620       -0.04610
Br        -0.14590       -3.49320       -2.26400
F          4.75360       -1.12670       -4.54710
F          3.84330       -3.18950       -4.52810
H          3.34080       -1.74640       -5.86200
