20
TSA8_9_Me_CHF2_H
C          2.56440       -1.44950       -0.00690
C          1.30710       -1.81330        0.75530
C          2.24700       -0.40600       -1.08480
H          3.27880       -0.96540        0.69650
C          1.20180       -1.52220        2.22550
C          3.28590       -2.71370       -0.54290
C          2.49010       -3.59140       -1.48100
C          2.16380       -3.23190       -2.72600
O          0.36880       -2.33990        0.17370
H          3.53990       -3.33310        0.34540
H          4.24420       -2.43220       -1.03110
H          2.19540       -4.57790       -1.13490
H          1.60190       -3.91580       -3.35380
H          2.46180       -2.27640       -3.13980
H          1.48310       -0.77130       -1.79940
H          3.17130       -0.12890       -1.63470
H          1.83980        0.51070       -0.60680
F         -0.03010       -1.91930        2.71620
F          2.19710       -2.19990        2.90490
H          1.32040       -0.43160        2.39500
