18
TSA8_9_OMe_I_Br
C          1.49190        0.21900       -0.06150
C          1.08020       -0.86150        0.60460
O          1.64710        0.16480       -1.40580
H          1.68290        1.14540        0.47610
I          0.82320       -0.70970        2.71310
C         -0.96390       -4.57510       -1.31670
C         -0.92660       -3.40520       -0.67080
C          0.12550       -3.09670        0.35290
O          0.84520       -2.00550       -0.08780
Br        -2.30800       -4.90900       -2.63400
H         -0.23160       -5.35050       -1.11280
H         -1.66880       -2.64530       -0.89790
H          0.81960       -3.95510        0.48270
H         -0.37620       -2.90300        1.32320
C          1.96580        1.27200       -2.15650
H          2.03520        0.97720       -3.22360
H          2.94180        1.69070       -1.83070
H          1.17120        2.04180       -2.05060
