18
TSA8_9_OMe_I_Br
C          0.50590       -1.09620       -1.04150
C          1.21170       -1.17650        0.33700
O          1.41620       -0.72470       -2.06010
H         -0.33780       -0.37050       -0.95000
I          0.28250       -0.02810        1.90010
C         -0.11450       -2.45600       -1.40370
C         -0.76820       -3.01790       -0.15130
C          0.35470       -3.31400        0.86820
O          1.51870       -2.49650        0.74430
Br        -1.39600       -2.27050       -2.84930
H          0.67320       -3.17140       -1.73080
H         -1.47660       -2.25510        0.24350
H          0.68900       -4.34900        0.65070
H         -0.03950       -3.30810        1.90670
C          1.58800        0.67650       -2.07290
H          2.29820        0.93460       -2.88520
H          2.03350        1.03760       -1.11990
H          0.63410        1.20080       -2.30060
