17
TSA8_9_OH_H_NH2
C          1.22790       -2.27460       -0.90430
C          1.19920       -1.66430        0.50580
O          0.57210       -1.41470       -1.80080
H          2.27940       -2.43330       -1.23740
H          1.80120       -2.25180        1.23590
C          0.51390       -3.63730       -0.85240
C         -0.88980       -3.45690       -0.25560
C         -0.76300       -2.75050        1.10100
O         -0.13250       -1.48780        0.95970
N          0.45350       -4.25440       -2.17810
H          1.09400       -4.30880       -0.17950
H         -1.51980       -2.83650       -0.93040
H         -0.21820       -3.38700        1.83490
H         -1.78250       -2.59370        1.51080
H          1.19880       -0.66760       -1.98780
H         -0.13870       -3.67870       -2.82020
H          0.01860       -5.20200       -2.09480
