24
TSA8_9_CHF2_OMe_CHF2
C          1.80510       -0.03220       -0.10100
C          1.76640        0.05740        1.24840
C          1.70180       -1.26690       -0.96300
H          1.90060        0.89880       -0.65300
O          1.80500        1.30150        1.78850
C          3.13260       -3.05840        4.36180
C          3.24020       -2.04110        3.49550
C          2.58140       -2.06080        2.14800
O          1.68390       -1.01280        2.08850
C          3.79270       -2.99870        5.70690
H          2.55920       -3.94350        4.10050
H          3.81490       -1.16020        3.77020
H          2.03890       -3.01720        1.98880
H          3.37590       -1.95980        1.37470
F          2.87700       -1.43180       -1.67160
F          1.41730       -2.42000       -0.26530
H          0.87180       -1.11330       -1.68310
C          1.87430        1.53950        3.14490
H          1.86550        2.63350        3.32480
H          2.81840        1.12100        3.55500
H          1.00550        1.08140        3.66440
F          5.16090       -2.86230        5.55670
F          3.29900       -1.92500        6.42580
H          3.58240       -3.93330        6.26680
