24
TSA8_9_CHF2_OMe_CHF2
C          2.92590       -0.52640        2.26600
C          1.41080       -0.59560        1.98090
C          3.68280       -0.41010        0.92120
H          3.13710        0.41770        2.81350
O          0.63000       -0.34410        3.12700
C          3.28900       -1.72970        3.18800
C          2.78430       -3.04380        2.57540
C          1.29120       -2.91270        2.24350
O          1.03940       -1.82250        1.36700
C          4.76730       -1.83480        3.59270
H          2.72310       -1.57870        4.13520
H          3.35420       -3.30550        1.66110
H          0.68670       -2.82210        3.17300
H          0.96150       -3.84990        1.74890
F          5.02800       -0.16870        1.12170
F          3.52540       -1.52470        0.11900
H          3.28220        0.46540        0.36610
C          0.26750        1.01480        3.11400
H         -0.08410        1.35860        2.11330
H          1.11060        1.64100        3.47850
H         -0.58400        1.15540        3.81080
F          5.57460       -2.16560        2.52020
F          5.19740       -0.64450        4.15130
H          4.87630       -2.63780        4.35250
