18
TSA8_9_NH2_NH2_H
C          1.80640       -0.07920        0.15880
C          1.52820       -0.57720        1.38940
N          1.86550       -0.82580       -1.04530
H          1.96580        0.99200        0.06750
N          1.41920        0.34000        2.46830
C          4.26670       -3.49830        2.33630
C          3.54460       -2.76490        1.48630
C          2.07230       -2.99950        1.27130
O          1.35210       -1.89650        1.70100
H          5.32250       -3.28650        2.46690
H          3.81640       -4.30170        2.91010
H          4.03140       -1.96370        0.93780
H          1.72450       -3.87460        1.86050
H          1.88080       -3.26540        0.22300
H          2.10260       -0.33740       -1.92140
H          1.54500       -1.79240       -1.12710
H          1.21490       -0.00680        3.41680
H          1.55170        1.35410        2.33190
