16
TSA8_9_NO2_Cl_Br
C          1.80410       -1.67480       -0.50890
C          1.18380       -0.99880        0.69310
N          1.73620       -0.78330       -1.66230
H          2.87900       -1.85350       -0.28370
Cl         2.15740       -0.65950        2.11490
C          1.16770       -3.07510       -0.74020
C         -0.31850       -3.03430       -1.02200
C         -1.20450       -3.61950       -0.20940
O          0.00840       -0.66760        0.68460
Br         2.06900       -4.02590       -2.17720
H          1.35300       -3.67320        0.18030
H         -0.69030       -2.52340       -1.90300
H         -0.88710       -4.14470        0.68620
H         -2.26400       -3.57290       -0.43890
O          2.25960        0.28890       -1.60490
O          1.14860       -1.14360       -2.78300
