24
TSA8_9_I_OMe_Et
C          3.58090       -0.86150        1.31260
C          2.26130       -0.40240        1.88000
I          3.54250       -0.44290       -0.80630
H          4.36920       -0.22410        1.76910
O          2.25080        0.59700        2.79850
C          3.86420       -2.33820        1.71400
C          2.94610       -3.30690        0.99480
C          2.05870       -4.06280        1.64900
O          1.21710       -0.92940        1.51930
C          5.34730       -2.76970        1.57530
H          3.67360       -2.39930        2.81100
H          3.00370       -3.39670       -0.08520
H          1.96040       -4.00980        2.72860
H          1.41850       -4.74460        1.09840
C          1.11110        1.05580        3.42340
H          1.38320        1.87830        4.11640
H          0.64290        0.23560        4.00850
H          0.38960        1.44230        2.67240
C          5.93300       -2.79220        0.16390
H          5.44080       -3.79670        1.99300
H          5.97700       -2.09940        2.20040
H          5.35190       -3.46400       -0.50030
H          6.97590       -3.17080        0.21300
H          5.97990       -1.77400       -0.26300
