24
TSA8_9_I_OMe_Et
C          1.95680       -0.04340       -0.04060
C          1.78620       -0.33020        1.26960
I          1.89770       -1.29090       -1.75850
H          2.14070        0.99390       -0.30460
O          1.86210        0.71470        2.13220
C          4.10850       -2.86610        2.25680
C          3.33230       -2.98330        1.16200
C          1.84170       -2.82090        1.27550
O          1.54670       -1.57350        1.78780
C          5.61540       -2.98490        2.28360
H          3.62910       -2.66410        3.21170
H          3.75480       -3.18830        0.18490
H          1.45860       -3.58980        1.97840
H          1.32350       -2.99440        0.31700
C          1.83160        0.57180        3.50240
H          1.92010        1.57130        3.97530
H          2.68620       -0.05630        3.83620
H          0.87630        0.10340        3.82050
C          6.27690       -3.23630        0.92930
H          5.88560       -3.81390        2.97160
H          6.02410       -2.03900        2.69940
H          5.92220       -4.19490        0.49520
H          7.37750       -3.29750        1.06450
H          6.05560       -2.40080        0.23140
