24
TSA8_9_I_OMe_Et
C          3.32750       -0.92150        1.02230
C          1.81510       -0.71750        1.32880
I          3.47030       -1.11630       -1.11780
H          3.89900       -0.00920        1.29890
O          1.49690        0.53670        1.90160
C          3.82220       -2.13270        1.84920
C          2.96790       -3.38190        1.55220
C          1.49740       -3.00020        1.29500
O          1.16600       -1.80990        1.97890
C          5.34610       -2.40880        1.87280
H          3.58660       -1.86540        2.90380
H          3.31610       -3.98810        0.69080
H          0.83880       -3.83130        1.62080
H          1.30660       -2.87530        0.20330
C          1.78630        0.54380        3.28260
H          1.62430        1.57210        3.66540
H          2.84950        0.29700        3.48920
H          1.09380       -0.12270        3.84100
C          5.99220       -2.85520        0.56120
H          5.53030       -3.20970        2.62220
H          5.87000       -1.49350        2.22470
H          5.52270       -3.78050        0.17230
H          7.06670       -3.06850        0.74480
H          5.95180       -2.05580       -0.19930
