21
TSA8_9_CCl3_NH2_NO2
C          1.61120       -1.33130        1.76690
C          2.84900       -2.24710        1.79600
C          1.31720       -0.61580        0.39790
H          1.92440       -0.50540        2.44610
N          3.52650       -2.65550        0.69500
C          0.32270       -1.94400        2.45690
C         -0.62270       -2.68180        1.53270
C         -1.88470       -2.26420        1.35130
O          3.29020       -2.57360        2.88900
N          0.63880       -2.81710        3.57930
H         -0.23310       -1.06330        2.85510
H         -0.28260       -3.57050        1.01150
H         -2.26710       -1.38300        1.86180
H         -2.55420       -2.80230        0.68970
Cl         0.85340       -1.72330       -0.93490
Cl        -0.00350        0.57430        0.57160
Cl         2.74490        0.31660       -0.13980
H          4.37010       -3.23860        0.80600
H          3.25300       -2.40550       -0.25890
O          1.09260       -3.90720        3.39870
O          0.28820       -2.46140        4.79630
