21
TSA8_9_CCl3_NH2_NO2
C          1.42550       -0.37310        0.03630
C          2.02790       -1.28040        0.84920
C          1.97760        0.15050       -1.27230
H          0.47050        0.03350        0.34600
N          3.30060       -1.83520        0.54600
C         -0.71620       -3.29550        4.07580
C         -0.16610       -3.14860        2.85840
C          0.08360       -1.79570        2.25870
O          1.43930       -1.68200        2.01040
N         -0.93440       -4.57600        4.65940
H         -1.00330       -2.41350        4.64230
H          0.12290       -4.02100        2.27880
H         -0.23280       -0.98520        2.94970
H         -0.51340       -1.72400        1.32410
Cl         2.15770       -1.17080       -2.45730
Cl         0.84280        1.34020       -1.96330
Cl         3.53880        0.98210       -1.03270
H          3.71860       -2.51850        1.19370
H          3.82070       -1.60790       -0.31010
O         -0.60870       -5.57620        4.09270
O         -1.47830       -4.65790        5.85340
