20
TSA8_9_CHF2_Cl_CH2F
C          1.42170       -0.07800        2.43210
C          1.10070        0.91390        1.33300
C          1.54030       -1.49370        1.82310
H          2.42190        0.19360        2.83690
Cl         2.23510        2.19910        0.94870
C          0.39290        0.06400        3.60100
C         -1.01840       -0.29100        3.17830
C         -2.00930        0.60620        3.19710
O          0.06380        0.82820        0.69360
C          0.77140       -0.76460        4.83860
H          0.43140        1.13070        3.92210
H         -1.23870       -1.30380        2.85460
H         -1.83600        1.62960        3.51560
H         -3.00870        0.31660        2.88980
F          2.46040       -1.47890        0.78840
F          1.97900       -2.40920        2.75980
H          0.56620       -1.83190        1.41310
F         -0.08820       -0.47070        5.88300
H          1.80520       -0.51650        5.15990
H          0.70490       -1.85260        4.63980
