20
TSA8_9_CHF2_Cl_CH2F
C          1.43590       -0.03580        2.65630
C          0.98420        0.94460        1.55390
C          1.62940       -1.43320        2.02410
H          2.43090        0.28460        3.03620
Cl         1.20410        2.67550        1.97310
C          0.39470        0.03460        3.81060
C         -1.01340       -0.20900        3.25450
C         -1.28150        0.77830        2.11230
O         -0.32160        0.65580        1.07310
C          0.68980       -0.89820        4.99170
H          0.41980        1.07120        4.21610
H         -1.11910       -1.25100        2.88580
H         -1.32610        1.82130        2.49420
H         -2.28530        0.55840        1.69320
F          2.52790       -1.34330        0.97480
F          2.14650       -2.32760        2.94190
H          0.67690       -1.83470        1.62270
F         -0.22020       -0.66900        6.00880
H          1.71030       -0.69960        5.38250
H          0.61160       -1.96370        4.69700
