16
TSA8_9_CN_Cl_CN
C          2.42270        1.19050        0.67070
C          1.72800        1.00570       -0.71090
C          1.69580        0.44520        1.71390
H          3.39870        0.68600        0.54870
Cl         1.45710       -0.58820       -1.39490
C          2.64020        2.65830        1.23400
C          2.21990        3.71100        0.27490
C          0.91570        3.98320        0.18510
O          1.41370        1.93220       -1.44050
C          3.97310        2.98740        1.76420
H          2.01120        2.81300        2.14230
H          2.94020        4.15470       -0.40870
H          0.54670        4.65550       -0.57060
H          0.21560        3.46920        0.84440
N          1.11880       -0.08710        2.56540
N          4.98990        3.32470        2.20420
