24
TSA8_9_Et_OH_CH2F
C          1.88060        0.02490        0.27540
C          1.44010       -0.20070        1.54700
C          1.90370       -0.87100       -0.94210
H          2.26710        1.02040        0.07160
O          1.52620        0.82400        2.42860
C          2.50770       -4.31140        2.32860
C          2.18790       -3.26400        1.55330
C          0.81330       -2.64610        1.58870
O          0.88690       -1.34790        2.04660
C          3.88450       -4.90150        2.30820
H          1.76960       -4.74530        2.99780
H          2.94090       -2.84030        0.89870
H          0.17560       -3.20830        2.30410
H          0.27600       -2.70750        0.62490
C          3.31870       -0.96320       -1.50460
H          1.25320       -0.41150       -1.71650
H          1.54160       -1.88810       -0.77730
H          3.69670        0.04870       -1.76670
H          3.31310       -1.58390       -2.42570
H          4.00410       -1.42580       -0.76440
H          1.89730        1.69080        2.20820
F          4.18090       -5.37150        1.04220
H          3.93970       -5.74360        3.02970
H          4.62880       -4.13090        2.60160
