21
TSA8_9_OH_CF3_CH2F
C          3.03030        1.14520       -0.71740
C          1.54070        0.97370       -1.17650
O          3.09380        1.10570        0.68470
H          3.67610        0.33300       -1.12640
C          1.40780        0.05750       -2.39700
C          3.54670        2.50740       -1.21800
C          2.65940        3.64410       -0.66690
C          1.20800        3.17230       -0.48230
O          0.88130        2.21020       -1.45930
C          5.03090        2.75060       -0.91130
H          3.43300        2.50510       -2.32450
H          2.99980        4.04260        0.31380
H          0.52430        4.04320       -0.55190
H          1.05430        2.74230        0.53530
H          2.93830        0.16100        0.94780
F          0.07040       -0.08960       -2.71580
F          2.07360        0.59570       -3.48420
F          1.93140       -1.18980       -2.11060
F          5.26370        2.77130        0.45300
H          5.34910        3.72400       -1.34290
H          5.64760        1.94900       -1.36950
