20
TSA8_9_Br_CH2F_CF3
C          1.86850       -0.02950       -0.21770
C          1.47850        0.46150       -1.40860
Br         2.11990        1.07230        1.33110
H          2.03270       -1.09520       -0.09070
C          1.25070       -0.46020       -2.57500
C          2.39150        2.59670       -4.19010
C          3.01910        2.52160       -3.00490
C          2.26700        2.72740       -1.71860
O          1.25730        1.79070       -1.57990
C          3.09070        2.39850       -5.50720
H          1.32580        2.80890       -4.21460
H          4.08340        2.31400       -2.95150
H          1.81650        3.74240       -1.72930
H          2.96970        2.67260       -0.86180
F         -0.05710       -0.34510       -3.00610
H          1.44760       -1.52160       -2.31100
H          1.93070       -0.18060       -3.40530
F          4.43970        2.13130       -5.34350
F          2.50380        1.33990       -6.17360
F          2.95150        3.54320       -6.26880
