21
TSA8_9_CH2F_NO2_NO2
C          1.62390        0.09400        0.02030
C          1.40400        1.42310       -0.15540
C          1.82800       -0.61000        1.33360
H          1.62830       -0.55630       -0.84890
N          1.14440        1.93260       -1.46320
C          3.14780        4.81400        2.35650
C          3.10370        3.78790        1.49350
C          2.41920        2.48970        1.79670
O          1.41470        2.32730        0.86300
N          3.79700        6.03910        2.02820
H          2.67340        4.71780        3.32910
H          3.57090        3.87820        0.51680
H          1.98160        2.46850        2.81900
H          3.19500        1.69920        1.71560
F          3.07950       -1.19640        1.35220
H          1.05830       -1.40450        1.42700
H          1.71580        0.04690        2.21480
O          0.94750        3.10100       -1.61460
O          1.13290        1.14050       -2.51470
O          4.32740        6.19340        0.96830
O          3.80660        7.02010        2.90290
