20
TSA8_9_CN_CBr3_NH2
C          2.76630        0.02120       -1.50230
C          1.61050       -1.00420       -1.44160
C          2.36770        1.10760       -0.55710
H          3.65070       -0.44090       -1.05330
C          1.70370       -2.37370       -0.77240
C          3.00650        0.57480       -2.99220
C          2.09670        1.76960       -3.14750
C          0.82930        1.58310       -3.47190
O          0.52730       -0.71600       -1.92570
N          4.37840        0.97030       -3.36770
H          2.73700       -0.22930       -3.71110
H          2.40630        2.72130       -2.71620
H          0.50020        0.61130       -3.81650
H          0.12030        2.37750       -3.30670
N          1.98680        1.96970        0.12180
Br         2.56610       -2.34650        0.96740
Br        -0.08090       -3.10840       -0.44920
Br         2.62110       -3.62180       -1.92350
H          4.72280        1.82980       -2.88310
H          4.37490        1.21520       -4.39380
