20
TSA8_9_CN_CBr3_NH2
C          1.64900       -0.07240       -0.03230
C          1.47710       -0.98640       -1.03910
C          1.80310        1.35580       -0.16250
H          1.60170       -0.40960        0.99530
C          1.46940       -2.46830       -0.69660
C          3.17910        1.20100       -4.37520
C          2.62650        1.01630       -3.17310
C          1.21820        0.52430       -3.01190
O          1.24670       -0.68910       -2.35930
N          4.49970        1.69970       -4.49940
H          2.61500        0.97920       -5.27410
H          3.21490        1.21990       -2.28710
H          0.72100        0.39100       -4.00790
H          0.58910        1.25520       -2.46150
N          1.92810        2.50470       -0.23680
Br         2.33000       -2.92630        0.99650
Br        -0.33100       -3.09240       -0.64210
Br         2.35540       -3.53380       -2.06280
H          5.05730        1.96190       -3.67250
H          4.89960        1.84910       -5.43570
