17
TSA8_9_Br_H_CHF2
C          2.02330       -0.29240       -0.24430
C          1.18980       -0.82700       -1.16010
Br         3.35950        1.06100       -0.49650
H          1.93100       -0.64440        0.77860
H          0.48370       -1.56700       -0.79760
C          3.33410       -1.82010       -3.93800
C          3.30390       -0.57580       -3.43360
C          2.00210        0.16650       -3.29310
O          1.12050       -0.53390       -2.49180
C          4.60160       -2.61270       -4.10430
H          2.40510       -2.29150       -4.24720
H          4.21930       -0.08220       -3.12280
H          1.55250        0.26360       -4.30340
H          2.14810        1.19510       -2.91000
F          5.71610       -1.91100       -3.67710
F          4.50210       -3.78410       -3.37820
H          4.72960       -2.86480       -5.17740
