17
TSA8_9_Br_H_CHF2
C          2.76090       -1.15670       -1.47720
C          1.28910       -0.66120       -1.40690
Br         3.97490        0.24130       -0.85450
H          2.88370       -1.99660       -0.75950
H          0.65960       -1.55080       -1.18970
C          3.03920       -1.61560       -2.92030
C          2.82560       -0.44130       -3.89600
C          1.76880        0.54500       -3.36720
O          0.77270       -0.12710       -2.62920
C          4.40280       -2.29400       -3.13030
H          2.26210       -2.37810       -3.15370
H          3.74840        0.14550       -4.09690
H          1.31310        1.08140       -4.22490
H          2.22770        1.33460       -2.73230
F          5.44810       -1.42090       -2.88920
F          4.52350       -3.38830       -2.29250
H          4.47890       -2.64830       -4.18060
