22
TSA8_9_NO2_OMe_NO2
C          1.13740       -0.72650       -1.47660
C          2.43050       -1.02520       -2.23630
N          0.96160        0.68410       -1.11210
H          1.21130       -1.31060       -0.53180
O          3.29830       -0.04340       -2.59910
C         -0.07350       -1.27220       -2.29730
C         -1.36430       -1.28010       -1.50260
C         -1.99790       -2.41890       -1.19900
O          2.68890       -2.19280       -2.49770
N         -0.25720       -0.52310       -3.52890
H          0.16190       -2.32990       -2.55860
H         -1.80420       -0.34710       -1.16920
H         -1.60670       -3.38350       -1.50860
H         -2.92160       -2.39180       -0.63040
O          0.06570        0.99880       -0.38910
O          1.79920        1.61780       -1.50980
C          4.50290       -0.23400       -3.25070
H          5.32350        0.16600       -2.62000
H          4.48860        0.31840       -4.21240
H          4.71270       -1.30450       -3.46130
O         -0.54450        0.63570       -3.50190
O         -0.12890       -1.12900       -4.68960
