18
TSA8_9_F_CN_CF3
C          2.89260        1.32620        1.27310
C          1.85730        1.96820        0.37160
F          2.96760       -0.03390        1.00380
H          3.86230        1.78430        0.98870
C          1.97400        1.84560       -1.05400
C          2.60920        1.56200        2.78380
C          1.59050        0.55260        3.27980
C          0.34190        0.88230        3.61470
O          0.98340        2.69410        0.82610
C          3.89310        1.47640        3.62840
H          2.23950        2.60280        2.91940
H          1.88540       -0.49200        3.35410
H         -0.01220        1.90310        3.53200
H         -0.34240        0.11020        3.95540
N          2.06200        1.74690       -2.20850
F          4.49220        0.23580        3.50210
F          4.78630        2.45050        3.21330
F          3.59630        1.70390        4.96120
