18
TSA8_9_F_CN_CF3
C          1.65810        0.04090       -0.01830
C          1.48730        1.37630        0.04700
F          1.72910       -0.75890        1.07630
H          1.73110       -0.44430       -0.98760
C          1.43020        2.11630       -1.18310
C          2.75230        2.03290        4.30460
C          2.41270        1.34010        3.20660
C          1.12240        1.60570        2.48750
O          1.37360        2.08060        1.21660
C          4.02890        1.79710        5.05980
H          2.08670        2.80620        4.67850
H          3.06990        0.57140        2.81220
H          0.52600        2.38150        3.01170
H          0.48650        0.69630        2.46620
N          1.37960        2.74140       -2.15130
F          4.77870        0.77380        4.50470
F          4.77950        2.95750        5.05280
F          3.71740        1.46670        6.36450
