21
TSA8_9_CH2F_OH_CBr3
C          2.78000       -0.68740       -1.21230
C          1.44210       -1.26870       -0.78220
C          2.86710        0.76150       -0.69500
H          3.55930       -1.26920       -0.67810
O          1.38780       -2.31720        0.06830
C          2.98230       -0.90180       -2.75820
C          1.94440       -0.14240       -3.56740
C          1.02430       -0.76480       -4.31100
O          0.39730       -0.78490       -1.19020
C          4.40640       -0.62690       -3.33610
H          2.83130       -1.99720       -2.90370
H          1.94510        0.94320       -3.54870
H          0.98180       -1.84770       -4.36380
H          0.30190       -0.18360       -4.87500
F          4.14810        1.26000       -0.78950
H          2.61020        0.77680        0.38650
H          2.15180        1.42790       -1.22130
H          2.18580       -2.73370        0.42350
Br         4.50960       -1.35270       -5.13890
Br         4.89410        1.25070       -3.51150
Br         5.78850       -1.53920       -2.31870
