21
TSA8_9_OH_Et_F
C          1.65540       -0.23330       -0.26450
C          1.57810        1.10470       -0.33540
O          1.75780       -0.84160        0.93510
H          1.64930       -0.83840       -1.16660
C          1.46260        1.78900       -1.68240
C          3.82490        3.88280        2.71910
C          3.07780        2.87470        2.26310
C          2.20090        3.01900        1.05030
O          1.58340        1.80390        0.83060
F          4.59980        3.70240        3.82080
H          3.82660        4.84520        2.21940
H          3.10780        1.92280        2.78770
H          2.82950        3.32310        0.18810
H          1.43540        3.80090        1.23960
H          1.83250       -1.80280        0.99770
C          0.12010        2.50210       -1.81110
H          1.52720        1.04610       -2.50790
H          2.29400        2.51050       -1.82970
H         -0.70870        1.76810       -1.70930
H          0.04300        2.97970       -2.81080
H          0.01210        3.28300       -1.03150
