22
TSA8_9_NH2_Me_CHF2
C          2.13540        1.63550        1.06240
C          0.95160        2.40360        0.50720
N          1.79500        0.21380        1.16770
H          2.99390        1.73000        0.35970
C          1.06540        3.14300       -0.79070
C          2.57110        2.18820        2.44560
C          3.71210        1.35970        2.99730
C          3.60340        0.68530        4.14660
O         -0.10660        2.42090        1.11920
C          3.01060        3.66290        2.36180
H          1.70020        2.13020        3.13750
H          4.64630        1.30820        2.44480
H          2.68710        0.70930        4.72860
H          4.43980        0.09980        4.51370
H          0.97990        0.07910        1.81010
H          1.54730       -0.15830        0.22230
H          1.86040        3.91350       -0.71300
H          0.10550        3.64340       -1.04190
H          1.32140        2.43200       -1.60370
F          3.36200        4.12460        3.61870
F          4.09290        3.80670        1.50980
H          2.17820        4.29430        1.98700
