22
TSA8_9_NH2_Me_CHF2
C          2.75860        1.85420        0.81530
C          1.25540        1.40150        0.84400
N          3.66110        0.69700        0.78850
H          2.96060        2.42910       -0.11680
C          0.42950        2.21470       -0.15260
C          3.02240        2.76410        2.03280
C          2.67110        2.02850        3.34180
C          1.48090        1.07260        3.14540
O          0.63330        1.54270        2.12340
C          4.43580        3.36430        2.07700
H          2.30840        3.61410        1.94100
H          3.51040        1.44200        3.77430
H          0.92180        0.99080        4.09970
H          1.80850        0.03610        2.91130
H          3.56790        0.09160        1.63160
H          3.45500        0.11850       -0.05800
H          0.44430        3.29140        0.12280
H         -0.62110        1.85690       -0.14730
H          0.83490        2.09360       -1.17920
F          5.39480        2.37480        2.20430
F          4.68170        4.08870        0.92410
H          4.51790        4.05210        2.94550
