20
TSA8_9_H_CF3_CCl3
C          2.11840        1.90080       -1.13900
C          0.92670        1.73970       -2.04660
H          1.82230        1.47520       -0.15480
H          2.97210        1.29800       -1.51860
C          1.00440        0.86410       -3.26870
C          2.56430        3.37160       -0.91620
C          3.64470        3.35500        0.14850
C          3.48580        3.95840        1.33100
O         -0.12280        2.30050       -1.76590
C          3.08890        4.10770       -2.18790
H          1.68880        3.94280       -0.53200
H          4.57760        2.83460       -0.04960
H          2.57040        4.48860        1.57440
H          4.28110        3.92300        2.06840
F         -0.20600        0.85960       -3.94000
F          1.98790        1.32710       -4.12210
F          1.30920       -0.42970       -2.88860
Cl         1.81760        4.33430       -3.42050
Cl         3.64250        5.75330       -1.76090
Cl         4.46170        3.24820       -2.94560
