20
TSA8_9_H_CF3_CCl3
C          2.99270        1.94910       -1.54040
C          1.64700        1.28100       -1.10630
H          3.73710        1.82280       -0.72490
H          3.40680        1.44250       -2.43700
C          0.88510        0.68380       -2.29670
C          2.75950        3.45710       -1.74830
C          2.25200        4.07230       -0.42010
C          1.49750        3.03580        0.42990
O          0.76830        2.16290       -0.40210
C          3.98160        4.21820       -2.32220
H          1.93850        3.55810       -2.49050
H          3.06120        4.48020        0.22350
H          0.81750        3.55680        1.13450
H          2.20520        2.44780        1.06120
F         -0.28540        0.10100       -1.84700
F          0.57010        1.65950       -3.22460
F          1.65390       -0.29200       -2.90550
Cl         3.57730        5.94080       -2.56390
Cl         5.40650        4.11670       -1.24630
Cl         4.44120        3.55760       -3.91570
