20
TSA8_9_CF3_CCl3_H
C          2.57890       -1.68120       -0.07890
C          1.28650       -2.00990        0.65290
C          2.38650       -0.47190       -1.01960
H          3.33930       -1.36600        0.67040
C          1.19590       -1.91380        2.16210
C          3.17760       -2.95180       -0.74630
C          2.32660       -3.64910       -1.78120
C          2.11700       -3.16320       -3.00730
O          0.30990       -2.36610        0.00850
H          3.34340       -3.68330        0.07450
H          4.17530       -2.73140       -1.18390
H          1.89880       -4.61530       -1.52930
H          1.51150       -3.72250       -3.71320
H          2.55690       -2.22640       -3.32870
F          3.56400       -0.20460       -1.69500
F          1.37150       -0.68540       -1.93330
F          2.05280        0.64320       -0.27250
Cl         2.37580       -3.01810        2.91310
Cl         1.53850       -0.25010        2.70000
Cl        -0.42960       -2.35970        2.75720
