20
TSA8_9_CF3_CCl3_H
C          1.75450       -0.10770        0.06180
C          1.45780       -1.38550        0.43220
C          1.90200        0.44860       -1.33570
H          1.88550        0.64920        0.82400
C          1.24580       -1.76910        1.89200
C          3.59180       -4.89830       -1.75330
C          2.66950       -4.25450       -1.03400
C          2.30530       -2.83210       -1.34020
O          1.32440       -2.40750       -0.46040
H          3.84390       -5.92720       -1.51770
H          4.09990       -4.40630       -2.57740
H          2.17960       -4.77450       -0.21540
H          1.91550       -2.78880       -2.37870
H          3.21990       -2.20290       -1.25460
F          3.20330        0.87680       -1.51810
F          1.57260       -0.44340       -2.33100
F          1.05710        1.53510       -1.45990
Cl         2.43950       -3.01120        2.34530
Cl         1.38560       -0.43790        3.08270
Cl        -0.38380       -2.46680        2.06980
