16
TSA8_9_NH2_H_I
C          1.80190       -0.82140        1.86830
C          1.41170        0.40200        1.07270
N          1.55320       -2.04150        1.09610
H          2.89540       -0.75410        2.06460
H          2.16590        1.13750        0.81450
C          1.09980       -0.86320        3.24590
C         -0.40360       -0.96850        3.14550
C         -1.21050       -0.01820        3.62690
O          0.25930        0.57410        0.70460
I          1.81930       -2.51910        4.40140
H          1.38460        0.05850        3.80080
H         -0.84720       -1.83890        2.67210
H         -0.81060        0.86980        4.10690
H         -2.28670       -0.12470        3.53810
H          2.13230       -2.02280        0.22530
H          0.54860       -2.10720        0.81550
