24
TSA8_9_CF3_OMe_CHF2
C          3.03600       -2.20470       -0.70430
C          1.51050       -1.97060       -0.75320
C          3.75460       -0.83770       -0.56680
H          3.27580       -2.76530        0.22520
O          0.77140       -3.14780       -0.51690
C          3.41160       -3.09280       -1.92920
C          2.87400       -2.47390       -3.22650
C          1.37280       -2.19210       -3.07300
O          1.10660       -1.34580       -1.96280
C          4.90020       -3.45480       -2.05970
H          2.87760       -4.06020       -1.78880
H          3.41170       -1.53780       -3.47800
H          0.79880       -3.14160       -2.99520
H          1.01720       -1.69010       -3.99680
F          5.10970       -1.01320       -0.36590
F          3.55880       -0.02880       -1.67020
F          3.25710       -0.17680        0.54330
C          0.42690       -3.17750        0.84630
H          0.05980       -2.19410        1.22210
H          1.28570       -3.54110        1.45110
H         -0.40870       -3.89520        0.97950
F          5.67180       -2.35450       -2.38760
F          5.36310       -4.01710       -0.88420
H          5.01970       -4.19810       -2.87580
