20
TSA8_9_CHF2_NH2_OH
C          1.90940       -0.07420        0.03350
C          1.28570       -0.57840        1.11770
C          2.08770       -0.78680       -1.28500
H          2.31780        0.93170        0.08840
N          1.18130        0.23180        2.28910
C         -0.08890       -4.80690        2.54630
C         -0.35760       -3.81220        1.68540
C         -0.07880       -2.37770        2.03140
O          0.76690       -1.83640        1.08610
O         -0.33820       -6.09630        2.23110
H          0.33390       -4.58710        3.52190
H         -0.78830       -4.03960        0.71360
H          0.37980       -2.31420        3.04150
H         -1.03630       -1.81350        2.02830
F          3.43610       -0.88360       -1.57210
F          1.53510       -2.05480       -1.29970
H          1.59690       -0.18430       -2.07730
H          0.71900       -0.10940        3.14220
H          1.58430        1.17890        2.31230
H         -0.70880       -6.35970        1.37690
