24
TSA8_9_H_OMe_Et
C          3.40600        1.12850        1.05790
C          1.92810        1.25390        0.72650
H          3.83650        0.32400        0.42520
H          3.93900        2.06660        0.80660
O          1.36030        2.40910        0.28580
C          3.64850        0.84670        2.55890
C          3.00870       -0.45610        2.99340
C          2.05100       -0.49490        3.92550
O          1.21230        0.27280        0.84860
C          5.15530        0.86020        2.91440
H          3.19060        1.69120        3.12430
H          3.32670       -1.38750        2.53560
H          1.69770        0.41160        4.40760
H          1.61070       -1.44420        4.21120
C          2.00150        3.62040        0.14030
H          1.27190        4.37450       -0.21910
H          2.81900        3.53910       -0.60660
H          2.40540        3.95770        1.11910
C          5.99560       -0.22490        2.23140
H          5.26080        0.73940        4.01490
H          5.57940        1.85170        2.64400
H          5.64540       -1.23850        2.51330
H          7.05210       -0.12620        2.55870
H          5.96950       -0.11760        1.12820
