24
TSA8_9_H_OMe_Et
C          1.71490       -0.07150       -0.02350
C          1.68310        1.06450        0.68830
H          1.65350       -1.04920        0.43850
H          1.79280       -0.03040       -1.10540
O          1.75450        2.24130        0.02170
C          4.19880        1.12320        3.28360
C          3.49890        0.03140        2.91880
C          1.99760        0.07730        2.91740
O          1.57890        1.07270        2.05160
C          5.70510        1.23880        3.30440
H          3.65050        2.01190        3.58680
H          3.98810       -0.88660        2.61240
H          1.65070        0.32380        3.94320
H          1.55730       -0.90320        2.64460
C          2.00580        3.44310        0.64540
H          1.98680        4.25750       -0.10790
H          3.01360        3.41710        1.11250
H          1.23950        3.64980        1.42370
C          6.46160        0.00180        2.82390
H          6.02230        1.47440        4.34240
H          5.98760        2.09150        2.65040
H          6.23550       -0.86940        3.47400
H          7.55300        0.20050        2.86630
H          6.18800       -0.23040        1.77240
