21
TSA8_9_OH_CH2F_CCl3
C          1.89600       -0.15120       -0.18460
C          1.42920       -0.78170       -1.28810
O          2.30360        1.13270       -0.19770
H          1.93910       -0.68670        0.76100
C          0.97220       -2.21010       -1.18010
C          4.07000        0.85760       -4.23830
C          3.40530        0.79590       -3.07270
C          1.90780        0.95570       -3.00110
O          1.33010       -0.20700       -2.52490
C          5.56370        0.67230       -4.31180
H          3.51960        1.03730       -5.15830
H          3.95490        0.61200       -2.15450
H          1.49750        1.14500       -4.01590
H          1.62320        1.82890       -2.37970
H          2.62180        1.55850        0.61020
F         -0.35530       -2.30170       -1.55360
H          1.08130       -2.61400       -0.15060
H          1.58320       -2.83610       -1.86370
Cl         6.10940        0.80800       -6.00270
Cl         6.39800        1.91850       -3.34770
Cl         6.01650       -0.94280       -3.70470
