19
TSA8_9_CHF2_NH2_Br
C          1.68930       -1.47710       -0.94910
C          0.97750       -1.35660        0.38830
C          1.59420       -0.13350       -1.71060
H          2.77020       -1.65300       -0.75220
N          1.66240       -1.48860        1.54870
C          1.18000       -2.72850       -1.72370
C         -0.28350       -2.67030       -2.09330
C         -1.16700       -3.54950       -1.60890
O         -0.22480       -1.13660        0.42520
Br         2.21170       -3.06910       -3.33630
H          1.36310       -3.60850       -1.06690
H         -0.63530       -1.90340       -2.77450
H         -0.86180       -4.33690       -0.92630
H         -2.21160       -3.48330       -1.89490
F          2.32590       -0.16440       -2.88260
F          0.28560        0.20730       -1.99960
H          2.02310        0.66990       -1.07360
H          1.17580       -1.40660        2.45380
H          2.67630       -1.67430        1.54970
