19
TSA8_9_CHF2_NH2_Br
C          1.90590       -0.06170       -0.04720
C          1.27300       -1.24890        0.04780
C          2.07390        0.74350       -1.31120
H          2.32960        0.37430        0.85430
N          1.18240       -1.88350        1.32210
C         -0.13120       -4.47990       -3.02070
C         -0.42950       -3.29350       -2.48100
C         -0.06110       -2.95440       -1.06570
O          0.73090       -1.82520       -1.06090
Br        -0.61860       -4.87560       -4.82540
H          0.39030       -5.24040       -2.44690
H         -0.95670       -2.55180       -3.07510
H          0.48260       -3.80230       -0.59480
H         -0.99260       -2.75340       -0.49310
F          3.42040        0.93480       -1.55190
F          1.50290        0.14300       -2.42280
H          1.59410        1.73400       -1.16520
H          0.70900       -2.78860        1.44320
H          1.59800       -1.44730        2.15830
