21
TSA8_9_OH_CCl3_CBr3
C          2.79750       -0.32660       -1.92100
C          1.51170       -1.03970       -2.31240
O          2.50190        0.54890       -0.86000
H          3.53200       -1.08310       -1.56060
C          1.31480       -2.52390       -2.05020
C          3.50290        0.50620       -3.04200
C          2.60320        1.63080       -3.52710
C          2.89310        2.91730       -3.30820
O          0.58370       -0.38530       -2.76400
C          4.06770       -0.29750       -4.24900
H          4.39260        0.95560       -2.54410
H          1.69540        1.39760       -4.07280
H          2.22540        3.69140       -3.67250
H          3.78790        3.20980       -2.76830
H          2.58460        0.03240       -0.01560
Cl         2.50940       -3.52020       -2.91260
Cl         1.47430       -2.84580       -0.30490
Cl        -0.31040       -3.07020       -2.55630
Br         5.08260        0.88950       -5.40950
Br         5.32710       -1.65940       -3.67020
Br         2.70210       -1.12260       -5.36330
