18
TSA8_9_OH_NH2_OH
C          2.76700        1.18370       -0.37080
C          1.39960        1.55560       -0.90440
O          2.62530        0.10020        0.51350
H          3.37670        0.86760       -1.25110
N          1.15320        1.54620       -2.23700
C          3.55870        2.33500        0.30720
C          2.95860        2.86190        1.59540
C          1.86300        3.62490        1.64180
O          0.49320        1.82820       -0.13300
O          4.84330        1.84260        0.59440
H          3.65400        3.17330       -0.42410
H          3.47060        2.65180        2.53080
H          1.33480        3.91700        0.74240
H          1.49950        3.98880        2.59740
H          3.45420       -0.44230        0.45150
H          0.21660        1.78350       -2.59590
H          1.89140        1.30530       -2.91430
H          5.45830        2.62240        0.61480
