20
TSA8_9_Br_CHF2_Me
C          2.00890        1.31620       -1.87040
C          0.78280        0.74340       -2.54180
Br         1.72480        1.24240        0.05590
H          2.89140        0.67880       -2.10210
C          0.88390       -0.49770       -3.38310
C          2.29630        2.76730       -2.33090
C          3.51650        3.30680       -1.61900
C          3.45800        4.38470       -0.83030
O         -0.30130        1.28870       -2.39070
C          2.54410        2.84360       -3.84420
H          1.40930        3.39780       -2.09420
H          4.47110        2.80450       -1.75170
H          2.52450        4.91540       -0.67080
H          4.35430        4.74330       -0.33530
F         -0.35680       -0.85140       -3.88390
F          1.75010       -0.28000       -4.43840
H          1.27000       -1.33250       -2.76180
H          3.41710        2.21810       -4.13160
H          2.74350        3.89490       -4.14400
H          1.65370        2.49580       -4.40810
