20
TSA8_9_CHF2_CF3_Br
C          1.66770       -0.57670       -1.70260
C          0.74540       -1.19160       -0.62220
C          1.51430        0.96400       -1.65910
H          2.73040       -0.77870       -1.44520
C          1.16930       -2.54910       -0.02740
C          1.35050       -1.24640       -3.06470
C         -0.14530       -1.18000       -3.36400
C         -0.92360       -1.77240       -2.18190
O         -0.63600       -1.10670       -0.96060
Br         2.38170       -0.54940       -4.55710
H          1.62360       -2.31960       -3.00000
H         -0.46840       -0.13760       -3.55510
H         -0.74890       -2.86340       -2.09390
H         -2.00650       -1.65880       -2.39620
F          2.37610        1.58190       -2.54500
F          0.22140        1.38210       -1.91320
H          1.78430        1.31570       -0.64010
F          0.28760       -2.89840        0.97830
F          1.19470       -3.55740       -0.97100
F          2.43270       -2.43030        0.52090
