21
TSA8_9_CN_I_Et
C          2.67230        0.90740        0.72290
C          1.86260        1.15820       -0.60250
C          1.83610        0.07060        1.58860
H          3.52690        0.26080        0.44130
I          1.52570       -0.31260       -2.08310
C          3.13300        2.17120        1.62940
C          2.61530        3.42630        1.02060
C          1.34270        3.76510        1.23460
O          1.38610        2.23500       -0.92220
C          4.57840        2.45930        2.18710
H          2.60830        2.06110        2.60550
H          3.22230        3.96220        0.29230
H          0.90480        4.58630        0.69070
H          0.72650        3.15460        1.89150
N          1.18000       -0.54290        2.33510
C          5.25840        1.31350        2.93450
H          4.47940        3.28490        2.94160
H          5.27700        2.84640        1.41500
H          4.63530        0.96490        3.78430
H          6.23350        1.65990        3.35930
H          5.46230        0.48530        2.23180
