22
TSA8_9_CHF2_OH_OMe
C          1.79950       -0.04370        0.09230
C          1.61600       -1.16400        0.82280
C          1.77420        0.03530       -1.41460
H          1.98380        0.88990        0.61620
O          1.65120       -1.10210        2.17440
C          4.07090       -4.67220        1.09890
C          3.06570       -3.78250        1.19220
C          2.38830       -3.27250       -0.05240
O          1.38600       -2.36280        0.23260
O          4.73750       -5.17180        2.17560
H          4.37780       -5.01530        0.11510
H          2.73700       -3.42360        2.16070
H          1.93840       -4.13350       -0.59150
H          3.14140       -2.79650       -0.71750
F          2.99990        0.48900       -1.86360
F          1.49420       -1.17470       -2.02210
H          0.99210        0.76140       -1.71810
H          1.80320       -0.27690        2.65750
C          4.50570       -4.84320        3.49540
H          5.21060       -5.40850        4.13850
H          3.46750       -5.11420        3.78220
H          4.67460       -3.75640        3.65500
