22
TSA8_9_CHF2_OH_OMe
C          2.76200       -1.40030        0.74550
C          1.22190       -1.45800        0.81160
C          3.20780       -0.90860       -0.64950
H          3.11620       -0.61360        1.44910
O          0.75790       -1.56550        2.12650
C          3.39320       -2.77310        1.13930
C          2.32430       -3.88320        1.19240
C          1.33010       -3.72600        0.03490
O          0.64740       -2.47050       -0.00840
O          4.00590       -2.64900        2.41330
H          4.14850       -3.02750        0.35830
H          1.75160       -3.82240        2.14240
H          0.57360       -4.53210        0.13160
H          1.86390       -3.88640       -0.92430
F          4.58170       -0.74670       -0.67750
F          2.83920       -1.78270       -1.65390
H          2.74210        0.07930       -0.85690
H          0.27570       -0.71650        2.29270
C          4.96150       -3.66910        2.61060
H          5.77440       -3.62070        1.85320
H          4.48280       -4.67240        2.63390
H          5.43580       -3.51320        3.60130
