16
TSA8_9_NO2_Cl_Cl
C          1.78090       -1.67810       -0.61620
C          1.15960       -1.09080        0.63130
N          1.69010       -0.71570       -1.70990
H          2.86040       -1.85490       -0.41130
Cl         2.13400       -0.84310        2.07110
C          1.16170       -3.06890       -0.93170
C         -0.32990       -3.02840       -1.18330
C         -1.19290       -3.66590       -0.38570
O         -0.01920       -0.77180        0.64980
Cl         1.97740       -3.83310       -2.32610
H          1.37000       -3.72240       -0.05490
H         -0.72320       -2.47080       -2.02600
H         -0.85130       -4.23470        0.47390
H         -2.25760       -3.61640       -0.58830
O          2.19810        0.35850       -1.58770
O          1.10150       -1.01410       -2.84790
