16
TSA8_9_NO2_Cl_Cl
C          1.97880       -0.11820       -0.00580
C          1.23180       -1.17920        0.34770
N          2.29930        0.20800       -1.35680
H          2.35640        0.52900        0.78220
Cl         0.91770       -1.44280        2.06720
C         -0.12770       -5.08850       -1.78900
C         -0.43090       -3.80110       -1.58920
C         -0.08860       -3.09540       -0.30990
O          0.73140       -2.02390       -0.59080
Cl        -0.54620       -5.87520       -3.30200
H          0.37960       -5.66860       -1.02400
H         -0.93990       -3.24330       -2.37020
H          0.42400       -3.78460        0.39770
H         -1.02940       -2.73360        0.15840
O          2.96530        1.17200       -1.58200
O          1.87160       -0.52520       -2.36270
