17
TSA8_9_H_Me_H
C          2.81640        1.86240        0.79630
C          1.33220        1.64950        0.63320
H          3.35620        0.97650        0.39740
H          3.10950        2.73760        0.17560
C          0.51760        2.61420       -0.17580
C          3.29590        2.16870        2.23010
C          3.14700        1.04390        3.22480
C          1.97380        0.67910        3.74930
O          0.79170        0.66680        1.11470
H          4.38580        2.37060        2.14390
H          2.81760        3.09150        2.62400
H          4.04400        0.53480        3.56560
H          1.05240        1.18360        3.48310
H          1.93440       -0.12440        4.47750
H          0.57650        3.62450        0.28040
H         -0.54710        2.29860       -0.21060
H          0.91130        2.65740       -1.21300
