17
TSA8_9_CCl3_F_F
C          1.80670       -0.04540       -0.00460
C          1.12270       -1.16970       -0.28560
C          2.09010        1.12570       -0.92790
H          2.20340        0.04400        1.00340
F          0.97720       -2.09930        0.69910
C         -0.28010       -3.39320       -4.11740
C         -0.60920       -2.44900       -3.23020
C         -0.16700       -2.51550       -1.79770
O          0.57990       -1.39640       -1.50460
F         -0.70220       -3.29230       -5.40460
H          0.32330       -4.24800       -3.82730
H         -1.21480       -1.60640       -3.55100
H          0.43920       -3.42980       -1.60920
H         -1.06890       -2.54390       -1.14840
Cl         1.44420        1.00490       -2.59090
Cl         1.40540        2.59360       -0.19120
Cl         3.85350        1.33020       -1.04790
