24
TSA8_9_CHF2_CHF2_OMe
C          2.69800        1.67740       -0.12630
C          1.40960        2.12230       -0.79220
C          2.40570        0.55360        0.88860
H          3.34880        1.21050       -0.90030
C          1.19750        1.89690       -2.26330
C          3.51450        2.89230        0.41620
C          2.82240        3.73000        1.47530
C          2.62320        3.31600        2.72950
O          0.53280        2.66080       -0.13140
O          3.79590        3.73180       -0.69500
H          4.45560        2.47980        0.85720
H          2.51290        4.73920        1.21840
H          2.14010        3.97480        3.44430
H          2.95330        2.34070        3.06510
F          3.57310        0.13840        1.50440
F          1.47960        0.93010        1.84340
H          1.97530       -0.31410        0.34380
F         -0.04700        2.36000       -2.65460
F          2.17220        2.56220       -2.98320
H          1.25930        0.81040       -2.48160
C          5.09070        4.28410       -0.59400
H          5.21460        5.03900       -1.39690
H          5.86520        3.50040       -0.74770
H          5.23640        4.81340        0.37450
