18
TSA8_9_CH2F_CN_H
C          1.44450        0.53300       -1.41730
C          2.30060       -0.69650       -1.59740
C          1.96880        1.40190       -0.25920
H          0.42600        0.17720       -1.14830
C          1.69530       -2.00030       -1.47090
C          1.36010        1.33480       -2.73810
C          0.13370        2.21010       -2.77680
C         -1.08740        1.65860       -2.81850
O          3.47190       -0.60460       -1.92890
H          2.28490        1.93830       -2.87440
H          1.27850        0.64910       -3.60970
H          0.23230        3.29060       -2.80020
H         -1.20760        0.57700       -2.82480
H         -1.97640        2.27640       -2.86300
F          3.26580        1.82470       -0.50530
H          1.96370        0.81550        0.68420
H          1.32450        2.29520       -0.11860
N          1.19880       -3.03940       -1.35800
