23
TSA8_9_Me_CF3_CBr3
C          2.61940        0.83060       -1.44720
C          1.40170        0.54250       -2.30810
C          2.17670        0.93760        0.02160
H          3.29430       -0.05040       -1.49430
C          1.26470       -0.77710       -3.02250
C          3.45020        2.09500       -1.86710
C          2.62700        3.36850       -1.75630
C          2.92130        4.33000       -0.87540
O          0.49900        1.36300       -2.38870
C          4.12710        2.01200       -3.26890
H          4.29120        2.14900       -1.13880
H          1.77390        3.51700       -2.40970
H          2.31110        5.22590       -0.82790
H          3.76440        4.23480       -0.19870
H          1.48200        1.79110        0.17300
H          3.06060        1.07610        0.68030
H          1.65960        0.00460        0.33320
F          0.07410       -0.82620       -3.72650
F          2.31240       -0.95390       -3.90530
F          1.27790       -1.80380       -2.09680
Br         5.30450        3.54020       -3.52010
Br         5.25910        0.43940       -3.42290
Br         2.88120        2.02400       -4.76490
