23
TSA8_9_Me_CF3_CBr3
C          1.79730        0.01800       -0.15830
C          1.42330        0.64420       -1.29820
C          1.94010        0.70010        1.17450
H          1.99250       -1.04950       -0.16350
C          1.23000       -0.12860       -2.58610
C          4.19760        2.76760       -2.73980
C          2.87420        2.98160       -2.64010
C          2.16450        2.95190       -1.31450
O          1.17610        1.98190       -1.31290
C          4.97690        2.78110       -4.03540
H          4.76420        2.56560       -1.83450
H          2.26850        3.18190       -3.51550
H          1.68710        3.94270       -1.16790
H          2.87380        2.78970       -0.47550
H          1.67210        1.77450        1.14730
H          2.98510        0.59520        1.53180
H          1.26070        0.20890        1.90200
F         -0.07220        0.03760       -3.01850
F          2.08740        0.35360       -3.55620
F          1.47020       -1.48300       -2.42780
Br         6.36630        4.12140       -3.90270
Br         5.81260        1.05150       -4.26710
Br         3.93720        3.15910       -5.63940
