23
TSA8_9_Me_CF3_CBr3
C          2.91410        0.84680       -1.27980
C          1.37800        0.89550       -1.50420
C          3.15580        0.64750        0.22550
H          3.31960       -0.06570       -1.76630
C          0.81110        0.32550       -2.81650
C          3.65410        2.13070       -1.78420
C          2.65460        3.17930       -2.28340
C          1.48960        3.29000       -1.29070
O          0.73130        2.09760       -1.09910
C          4.78780        1.85060       -2.80670
H          4.15050        2.61260       -0.91150
H          2.26820        2.95440       -3.29120
H          0.80660        4.08030       -1.66450
H          1.88360        3.62220       -0.30640
H          2.75830        1.50510        0.80990
H          4.24220        0.54910        0.43350
H          2.65340       -0.28040        0.57430
F         -0.56010        0.20250       -2.68990
F          1.07280        1.12750       -3.90520
F          1.34060       -0.93060       -3.04760
Br         5.68830        3.50250       -3.29540
Br         6.13870        0.68550       -2.03600
Br         4.14600        1.01630       -4.44050
