22
TSA8_9_Me_CF3_NO2
C          2.70760        1.10330       -1.18630
C          1.32070        0.52410       -1.63380
C          2.63340        1.45440        0.31280
H          3.50360        0.33320       -1.29640
C          1.43890       -0.87140       -2.25090
C          3.05080        2.30710       -2.10620
C          1.92630        3.35540       -2.04660
C          0.54640        2.67640       -1.98650
O          0.61590        1.37750       -2.53500
N          4.35000        2.92070       -1.87800
H          3.05830        1.90680       -3.14540
H          2.01380        4.05990       -1.19080
H         -0.18760        3.29270       -2.54510
H          0.16110        2.62700       -0.94230
H          1.86220        2.22050        0.52530
H          3.60100        1.82890        0.69790
H          2.38070        0.54140        0.89340
F          0.17980       -1.33910       -2.57860
F          2.21600       -0.82450       -3.39490
F          2.01230       -1.74270       -1.34230
O          5.10140        2.50050       -1.05070
O          4.74380        3.90360       -2.65890
