17
TSA8_9_CHF2_Br_Br
C          1.67230       -1.70100        1.07500
C          0.90600       -0.40660        1.41290
C          1.54560       -1.96740       -0.44270
H          2.75270       -1.55680        1.29290
Br         1.38290        0.39410        3.12890
C          1.11420       -2.82790        1.97880
C         -0.40300       -2.92460        1.82420
C         -1.02030       -1.54620        2.09930
O         -0.49740       -0.54820        1.23490
Br         1.94710       -4.56170        1.69940
H          1.32600       -2.56460        3.03830
H         -0.67310       -3.26610        0.80300
H         -0.88580       -1.26080        3.16500
H         -2.11490       -1.61920        1.93350
F          2.05870       -0.88970       -1.14360
F          2.25640       -3.09290       -0.81370
H          0.48740       -2.09810       -0.74740
