21
TSA8_9_H_Et_CN
C          1.74270        0.31080       -1.91750
C          2.73060       -0.79310       -2.15320
H          2.12530        1.17460       -1.30740
H          0.98950       -0.14110       -1.23220
C          2.93510       -1.94350       -1.19320
C          1.04430        0.73240       -3.23460
C         -0.39180        1.01760       -2.93410
C         -1.17210       -0.05970       -2.74200
O          3.32710       -0.82930       -3.21920
C          1.72790        1.75880       -4.06540
H          1.01220       -0.15250       -3.92990
H         -0.77370        2.02520       -2.78840
H         -0.74150       -1.05550       -2.87360
H         -2.20180        0.01740       -2.45020
C          2.48270       -3.27310       -1.81860
H          2.42640       -1.81900       -0.20770
H          4.02570       -1.98200       -1.00820
H          1.38400       -3.41500       -1.71480
H          2.99480       -4.12070       -1.31520
H          2.73930       -3.32000       -2.89800
N          2.26070        2.51220       -4.74240
