18
TSA8_9_I_Br_OMe
C          1.80320       -0.03630        0.13940
C          1.42690       -0.28610        1.40880
I          2.13500       -1.42410       -1.42960
H          1.91310        0.99930       -0.16870
Br         1.09280        1.21090        2.55090
C          3.37000       -1.90570        3.90670
C          3.38180       -2.26390        2.60850
C          2.10010       -2.59770        1.89600
O          1.23080       -1.52320        1.94330
O          4.49000       -1.58220        4.60970
H          2.42030       -1.86620        4.43190
H          4.30900       -2.31520        2.04820
H          1.62330       -3.46160        2.40660
H          2.31030       -2.91460        0.86230
C          5.77820       -1.56730        4.11940
H          6.47000       -1.25640        4.92910
H          5.86230       -0.84060        3.28320
H          6.06880       -2.58280        3.77460
