18
TSA8_9_I_OMe_Cl
C          3.34350       -0.45570        1.01680
C          2.25400       -0.03350        1.96860
I          2.54270       -0.52350       -0.98090
H          4.10360        0.35590        1.03000
O          2.41010        1.11560        2.67500
C          4.09380       -1.76010        1.40110
C          3.28420       -3.03640        1.31060
C          2.32470       -3.36310        2.18050
O          1.22200       -0.68250        2.06050
Cl         5.51190       -1.92860        0.32100
H          4.50880       -1.66760        2.42840
H          3.51710       -3.75230        0.52680
H          2.07220       -2.72330        3.01660
H          1.79540       -4.30430        2.07040
C          1.47540        1.60990        3.55970
H          1.85070        2.56080        3.99070
H          1.30850        0.88390        4.38380
H          0.51750        1.80910        3.03340
