18
TSA8_9_I_OMe_Cl
C          1.79530       -0.13210       -0.08150
C          1.80900       -0.06330        1.26720
I          1.55620       -1.81380       -1.35250
H          1.88620        0.79800       -0.63470
O          1.92470        1.17010        1.81690
C          4.48780       -2.75170        3.12100
C          3.78850       -2.22150        2.11120
C          2.29500       -2.37790        2.01460
O          1.69450       -1.13680        2.10570
Cl         6.22660       -2.52850        3.21120
H          3.99510       -3.32080        3.90410
H          4.30450       -1.65250        1.34380
H          1.91710       -2.99720        2.85570
H          2.01980       -2.91150        1.09410
C          2.08940        1.38250        3.16900
H          2.14850        2.47300        3.36270
H          3.03450        0.90810        3.51150
H          1.23230        0.96000        3.73560
