18
TSA8_9_I_OMe_Cl
C          3.19560       -0.54440        1.03740
C          1.74560       -0.50270        1.59450
I          3.11750       -1.19150       -1.01140
H          3.64320        0.47280        1.02720
O          1.29240        0.79390        1.93490
C          4.03420       -1.47810        1.92250
C          3.37610       -2.86040        2.05600
C          1.84060       -2.74340        2.09540
O          1.45130       -1.47940        2.59190
Cl         5.72970       -1.61530        1.38210
H          4.05000       -1.03020        2.93950
H          3.64740       -3.56450        1.23980
H          1.42330       -3.55430        2.72680
H          1.40920       -2.89990        1.07800
C          1.79690        1.18300        3.19460
H          1.57630        2.26010        3.33910
H          2.90150        1.07880        3.25930
H          1.28880        0.62850        4.01300
