18
TSA8_9_CHF2_OH_Br
C          1.70150       -1.09010       -1.75190
C          1.08650       -1.47980       -0.39270
C          1.49440        0.42520       -1.97540
H          2.79850       -1.27150       -1.72490
O          1.48620       -2.75440        0.02810
C          1.06220       -1.99800       -2.83280
C         -0.46310       -1.91050       -2.76410
C         -0.91680       -2.23150       -1.33330
O         -0.32930       -1.35140       -0.38600
Br         1.69050       -1.65400       -4.63960
H          1.34530       -3.05110       -2.61310
H         -0.81240       -0.89790       -3.05530
H         -0.69810       -3.29210       -1.07720
H         -2.01970       -2.11880       -1.28470
F          2.07910        1.12850       -0.93660
F          2.08320        0.84040       -3.15460
H          0.41780        0.68970       -2.00210
H          1.94740       -2.59910        0.89080
