25
TSA8_9_OMe_OMe_Me
C          2.54890       -1.15900       -0.45110
C          2.07170       -1.95150        0.74120
O          1.41900       -0.48470       -0.99240
H          3.33170       -0.44220       -0.09440
O          2.58450       -1.72490        1.97760
C          3.18810       -2.12060       -1.50560
C          2.91410       -1.68660       -2.92770
C          2.23090       -2.47500       -3.76930
O          1.19300       -2.79090        0.58430
C          4.70440       -2.22370       -1.29320
H          2.74970       -3.13700       -1.38080
H          3.26680       -0.72190       -3.27990
H          1.85930       -3.44810       -3.45340
H          2.03160       -2.15680       -4.78550
C          1.68820        0.89840       -1.12770
H          2.59570        1.08070       -1.74740
H          1.79040        1.38040       -0.12980
H          0.83880        1.38080       -1.65090
C          2.15450       -2.40510        3.09850
H          2.71680       -2.05230        3.98700
H          2.32650       -3.49700        2.97400
H          1.06940       -2.22360        3.26640
H          5.18000       -1.22890       -1.45050
H          5.14830       -2.93680       -2.02070
H          4.93660       -2.56920       -0.26510
