21
TSA8_9_CF3_Br_OMe
C          1.92470       -0.02410        0.09770
C          1.53980       -0.32450        1.35180
C          1.85890       -0.95570       -1.08780
H          2.32290        0.96900       -0.08890
Br         1.70400        1.00230        2.72020
C          4.03070       -2.46120        3.20680
C          3.26400       -2.40570        2.10330
C          1.76810       -2.62340        2.15440
O          1.03500       -1.53900        1.68780
O          5.37950       -2.27060        3.18960
H          3.56580       -2.66720        4.16520
H          3.70540       -2.20380        1.13300
H          1.42950       -2.85660        3.18640
H          1.53610       -3.50250        1.51840
F          3.13700       -1.14260       -1.57860
F          1.31890       -2.18860       -0.77620
F          1.08340       -0.37330       -2.07220
C          6.14250       -1.98820        2.07420
H          7.20490       -1.88980        2.37640
H          5.81350       -1.03050        1.61710
H          6.06020       -2.81210        1.33340
