19
TSA8_9_NH2_Me_H
C          2.89340       -0.62520        0.75410
C          1.49440       -0.78770        1.43960
N          2.77760       -0.76450       -0.69960
H          3.31820        0.38490        0.95250
C          1.16020        0.40850        2.32630
C          3.86430       -1.66410        1.32820
C          3.29100       -3.08300        1.21310
C          1.76790       -3.08370        1.43320
O          1.38700       -1.97640        2.22020
H          4.87580       -1.60260        0.87360
H          3.97070       -1.44070        2.41270
H          3.50500       -3.56400        0.23420
H          1.47110       -4.03130        1.92790
H          1.21830       -3.06790        0.46360
H          2.34890       -1.67890       -0.96430
H          2.16630       -0.00030       -1.06930
H          1.89460        0.48780        3.15640
H          0.14320        0.28350        2.75340
H          1.17840        1.34370        1.72830
