18
TSA8_9_CN_H_CH2F
C          1.57670        0.13890        0.02150
C          1.71520        1.22590        0.78530
C          1.88740       -1.19950        0.46210
H          1.47160        0.27630       -1.03760
H          2.70560        1.14460        1.20560
C          2.96270        1.55590        4.54410
C          2.41080        0.81920        3.58000
C          0.97430        0.92190        3.16070
O          0.87750        1.42160        1.86280
C          4.44350        1.47170        4.75570
H          2.36680        2.24660        5.13350
H          3.04320        0.14200        3.01760
H          0.39740        1.58550        3.85120
H          0.48710       -0.07480        3.19690
N          2.13200       -2.28200        0.78510
F          4.82540        0.16740        5.01100
H          4.75100        2.12620        5.59390
H          4.95240        1.82070        3.82820
