18
TSA8_9_CN_H_CH2F
C          2.81770        0.60650        1.63890
C          1.51770        1.20590        1.06670
C          2.69280       -0.86150        1.51830
H          3.68250        0.91510        1.01740
H          1.77420        2.21620        0.67630
C          2.96290        1.18470        3.05440
C          1.84760        0.60010        3.91300
C          0.49050        0.67070        3.19820
O          0.45700        1.44510        2.00930
C          4.32610        1.05300        3.73000
H          2.80500        2.28790        2.96290
H          2.06340       -0.47030        4.13970
H         -0.17560        1.16940        3.93560
H          0.06170       -0.34060        3.01940
N          2.55110       -2.00710        1.46080
F          4.67870       -0.26790        3.95500
H          4.27570        1.58840        4.70170
H          5.11510        1.54480        3.11750
