22
TSA8_9_NO2_Me_CHF2
C          2.04500        0.14580       -0.10000
C          1.59320        0.15490       -1.39580
N          1.89520        1.11330        0.94320
H          2.59890       -0.74160        0.20070
C          1.88820       -1.06130       -2.23770
C          2.17980        4.20090       -2.74630
C          1.90680        3.25430       -1.83510
C          0.62820        2.45650       -1.88350
O          0.90120        1.11950       -2.08000
C          3.45790        4.98290       -2.70100
H          1.47160        4.41560       -3.54200
H          2.62660        3.05100       -1.04840
H          0.01180        2.79210       -2.74440
H         -0.02410        2.61650       -1.01120
O          2.40810        0.89270        1.99760
O          1.13450        2.17200        0.83480
H          2.49050       -0.75550       -3.11890
H          0.93280       -1.50140       -2.59260
H          2.45070       -1.85240       -1.69710
F          3.54710        5.67620       -1.50790
F          4.53850        4.12790       -2.82060
H          3.47860        5.70790       -3.54170
