22
TSA8_9_NO2_Me_CHF2
C          2.59520        1.58090       -1.25260
C          1.37550        0.65440       -1.55740
N          2.65390        1.85290        0.17500
H          3.54250        1.07670       -1.55670
C          1.80230       -0.71190       -2.08530
C          2.48070        2.87360       -2.09870
C          1.09380        3.52420       -1.94560
C         -0.01050        2.45380       -1.87880
O          0.44160        1.24470       -2.45340
C          3.61900        3.88090       -1.87790
H          2.54300        2.54270       -3.16070
H          0.99200        4.20210       -1.07100
H         -0.91160        2.82220       -2.41060
H         -0.33660        2.28040       -0.82630
O          3.61500        1.52460        0.80340
O          1.65120        2.43700        0.79530
H          2.32720       -0.59770       -3.05810
H          0.90790       -1.35260       -2.23080
H          2.47990       -1.20660       -1.35810
F          3.60780        4.37190       -0.58460
F          4.84090        3.28100       -2.12610
H          3.49900        4.73330       -2.58010
