22
TSA8_9_NO2_CHF2_Me
C          2.62680       -2.00690       -0.41660
C          1.47070       -1.60150        0.54780
N          2.74770       -1.01290       -1.47130
H          3.59300       -2.05950        0.13820
C          1.96440       -1.18860        1.93300
C          2.35680       -3.42400       -0.97620
C          0.92710       -3.55020       -1.53070
C         -0.07660       -2.79790       -0.63720
O          0.46430       -2.59950        0.65380
C          3.40650       -3.88800       -1.98860
H          2.40740       -4.11220       -0.10200
H          0.80550       -3.20770       -2.58100
H         -1.02120       -3.37610       -0.57700
H         -0.35530       -1.81790       -1.09290
O          3.76800       -0.40750       -1.60410
O          1.73690       -0.75360       -2.27330
F          0.89990       -0.73650        2.69040
F          2.54940       -2.26870        2.57080
H          2.70880       -0.37040        1.83990
H          3.39210       -3.24380       -2.89290
H          3.20110       -4.93610       -2.29360
H          4.41870       -3.84610       -1.53280
