23
TSA8_9_NO2_OMe_CF3
C          1.89270        0.07620       -0.08230
C          1.80880       -1.11050        0.59180
N          1.53520        0.42410       -1.42020
H          2.29390        0.89920        0.50940
O          2.24700       -1.06020        1.87630
C          3.11010       -4.28190       -1.94530
C          2.56420       -3.07870       -1.71120
C          1.21180       -2.94590       -1.06620
O          1.35470       -2.33100        0.15760
C          4.48290       -4.41590       -2.53030
H          2.56320       -5.18700       -1.69300
H          3.11630       -2.17680       -1.95910
H          0.78750       -3.95450       -0.87380
H          0.45170       -2.46550       -1.69700
O          1.69950        1.55260       -1.77500
O          1.03160       -0.42560       -2.27660
C          2.59450       -2.17690        2.60540
H          2.87600       -1.86970        3.63320
H          3.47260       -2.66760        2.13150
H          1.74980       -2.89640        2.65940
F          5.40600       -3.82170       -1.68930
F          4.79890       -5.75530       -2.66910
F          4.53250       -3.80780       -3.77150
