23
TSA8_9_NO2_OMe_CF3
C          2.95090       -1.58060       -0.62220
C          1.67100       -1.60200        0.25860
N          2.85290       -0.50440       -1.59350
H          3.84660       -1.40790        0.01650
O          1.84590       -1.07900        1.56130
C          3.11620       -2.97090       -1.28530
C          1.81080       -3.43590       -1.96100
C          0.57650       -3.05460       -1.11910
O          0.94070       -2.82270        0.22690
C          4.33150       -3.08540       -2.22050
H          3.28590       -3.68150       -0.44440
H          1.66830       -3.06650       -2.99930
H         -0.17560       -3.86750       -1.18150
H          0.07430       -2.15150       -1.54070
O          3.66570        0.37070       -1.59590
O          1.86470       -0.46510       -2.46140
C          2.41150       -2.05640        2.40990
H          2.70650       -1.56580        3.35990
H          3.33630       -2.50550        1.98600
H          1.66650       -2.84220        2.66100
F          5.48510       -2.73990       -1.53940
F          4.45580       -4.39020       -2.66390
F          4.19030       -2.25450       -3.31790
