20
TSA8_9_CF3_CHF2_Br
C          1.78060        0.12650       -0.04280
C          1.41370        1.42940       -0.00490
C          1.94120       -0.79100        1.14650
H          1.96680       -0.33420       -1.00930
C          1.22220        2.18840       -1.29640
C          4.09930        3.87450        1.06430
C          2.79100        3.81320        1.33110
C          2.16590        2.60750        1.97530
O          1.17480        2.06950        1.17030
Br         4.84320        5.43120        0.24180
H          4.75950        3.04680        1.30530
H          2.15300        4.65470        1.07860
H          1.70280        2.93850        2.92800
H          2.92940        1.83640        2.21620
F          3.25280       -1.22170        1.20990
F          1.60320       -0.19700        2.34680
F          1.12050       -1.88870        0.96840
F         -0.07690        2.65560       -1.36220
F          2.09140        3.25900       -1.36160
H          1.40690        1.54610       -2.18360
