24
TSA8_9_Et_Cl_OMe
C          2.49490       -1.17160        0.99560
C          1.23620       -0.52530        1.54270
C          2.51710       -0.83890       -0.52910
H          3.34790       -0.66370        1.49730
Cl         1.35050        0.76590        2.72910
C          2.50850       -2.67940        1.43790
C          1.66440       -3.59150        0.56070
C          0.56590       -4.20390        1.01600
O          0.13160       -0.89300        1.16990
O          3.79360       -3.19560        1.77950
H          2.03040       -2.67620        2.44440
H          1.94430       -3.75060       -0.47510
H          0.23100       -4.07730        2.04090
H         -0.01200       -4.84120        0.35460
C          3.76050       -1.21130       -1.32180
H          2.42550        0.26710       -0.62160
H          1.63330       -1.28750       -1.03340
H          4.66520       -0.76360       -0.85980
H          3.66360       -0.80870       -2.35260
H          3.85300       -2.30410       -1.42840
C          4.63240       -3.54590        0.70820
H          5.38680       -4.26070        1.09590
H          5.20410       -2.66340        0.36650
H          4.11830       -4.09730       -0.10210
