24
TSA8_9_Et_Cl_OMe
C          2.41830       -1.15130        0.90160
C          1.02920       -1.01200        1.60550
C          2.22610       -0.88130       -0.61470
H          3.10620       -0.36260        1.28150
Cl         1.08390        0.19380        2.91890
C          3.00360       -2.53780        1.26260
C          2.01270       -3.64790        0.84610
C          0.56090       -3.22250        1.12350
O          0.52340       -2.23570        2.13130
O          4.29820       -2.71200        0.71550
H          3.07740       -2.53410        2.37640
H          2.09900       -3.94690       -0.22070
H         -0.02640       -4.11170        1.43180
H          0.06760       -2.84030        0.20030
C          3.52460       -0.83600       -1.42130
H          1.74870        0.11760       -0.72020
H          1.54750       -1.62770       -1.07630
H          4.22000       -0.08320       -0.99300
H          3.29370       -0.54720       -2.46850
H          4.01860       -1.82530       -1.46130
C          4.86980       -3.93880        1.12760
H          4.63840       -4.19680        2.18550
H          5.97300       -3.84830        1.06050
H          4.55040       -4.75310        0.44410
