21
TSA8_9_OH_NO2_OMe
C          2.49130       -0.74850       -0.63000
C          1.77590       -1.73160        0.28320
O          1.52800        0.00910       -1.31530
H          3.10910       -0.05750       -0.01150
N          1.94580       -1.71280        1.63610
C          3.45490       -1.45730       -1.61910
C          2.76800       -2.45870       -2.53020
C          1.83320       -2.11580       -3.42160
O          1.01820       -2.55350       -0.21610
O          4.44480       -2.13070       -0.85710
H          3.90710       -0.65170       -2.24890
H          3.05860       -3.50360       -2.46710
H          1.38300       -2.87850       -4.04850
H          1.51270       -1.08810       -3.54470
H          1.96950        0.85130       -1.60250
O          1.36230       -2.49580        2.32410
O          2.75010       -0.83950        2.20480
C          5.67660       -2.15230       -1.54770
H          6.15480       -1.14900       -1.52530
H          5.56240       -2.51990       -2.59260
H          6.35430       -2.86440       -1.03380
