23
TSA8_9_CHF2_F_Et
C          2.47890       -1.83350        0.61290
C          1.53120       -0.86060        1.28480
C          2.52530       -1.46760       -0.89490
H          3.48210       -1.63350        1.04950
F          2.00770        0.00890        2.21360
C          2.07810       -3.29890        1.01650
C          0.82310       -3.78200        0.31740
C         -0.30920       -4.03460        0.98170
O          0.34190       -0.84460        1.00580
C          3.19030       -4.38440        0.96340
H          1.87580       -3.23910        2.11250
H          0.83760       -3.93810       -0.75620
H         -0.37480       -3.89800        2.05650
H         -1.18540       -4.38300        0.44460
F          3.47060       -2.17140       -1.59790
F          1.29370       -1.62970       -1.50440
H          2.80450       -0.39530       -0.98660
C          3.69900       -4.85310       -0.39890
H          2.77060       -5.28790        1.46080
H          4.06010       -4.05290        1.57150
H          2.86460       -5.18650       -1.04940
H          4.37970       -5.71690       -0.24410
H          4.30930       -4.08620       -0.89500
