21
TSA8_9_Et_OH_Cl
C          2.59640        0.10370       -1.37350
C          1.20130       -0.48100       -1.77370
C          2.40810        1.13290       -0.22240
H          3.21490       -0.72120       -0.95270
O          1.29270       -1.87070       -1.87710
C          3.25130        0.62260       -2.67200
C          2.38320        1.70800       -3.32010
C          0.88600        1.40670       -3.12190
O          0.66670        0.01860       -3.00260
Cl         4.95720        1.12950       -2.54330
H          3.26610       -0.24020       -3.37470
H          2.58630        2.72940       -2.93230
H          0.32050        1.81100       -3.98640
H          0.46580        1.92520       -2.23400
C          3.70530        1.63870        0.40660
H          1.84640        0.61970        0.58900
H          1.81160        2.01030       -0.53520
H          4.32510        0.78620        0.75640
H          3.46030        2.27840        1.28090
H          4.28120        2.26610       -0.29730
H          0.72180       -2.21490       -1.14380
