26
TSA8_9_Et_CF3_CBr3
C          1.90910        0.18040       -0.08810
C          1.45760        1.45790       -0.28020
C          1.90940       -0.69430        1.14530
H          2.32940       -0.33750       -0.94430
C          1.56800        2.08170       -1.65670
C          2.31540        3.38080        3.53330
C          2.05270        2.36000        2.69980
C          0.71840        2.21970        2.01270
O          0.87110        2.28170        0.64370
C          3.65190        3.53160        4.21120
H          1.54650        4.12440        3.72670
H          2.82370        1.62290        2.51130
H          0.06190        3.06590        2.30840
H          0.16190        1.31250        2.31090
C          3.32700       -1.16820        1.45490
H          1.28170       -1.58610        0.93310
H          1.50830       -0.22980        2.04800
H          3.74490       -1.72880        0.59080
H          3.31030       -1.84400        2.33580
H          3.98810       -0.30510        1.67840
F          0.30150        2.41380       -2.10200
F          2.32500        3.23470       -1.56650
F          2.15480        1.24700       -2.59340
Br         3.64720        5.10910        5.33700
Br         4.03160        1.98970        5.32610
Br         5.06130        3.73050        2.89300
