26
TSA8_9_Et_CF3_CBr3
C          2.36820        1.33810        1.04550
C          1.06950        1.65090        0.20860
C          2.31520       -0.15600        1.45870
H          3.23830        1.44890        0.36200
C          1.37270        2.11660       -1.21880
C          2.46550        2.40290        2.19340
C          1.15540        2.43960        3.01800
C         -0.06620        2.14700        2.14250
O          0.18600        2.57880        0.82820
C          3.71670        2.47020        3.11530
H          2.49430        3.35950        1.62330
H          1.12500        1.73910        3.87780
H         -0.95380        2.66650        2.55890
H         -0.31820        1.05970        2.15300
C          3.68840       -0.80750        1.64500
H          1.86950       -0.73320        0.61710
H          1.66150       -0.30330        2.34330
H          4.26960       -0.73860        0.70070
H          3.55390       -1.88210        1.89100
H          4.29040       -0.35060        2.43760
F          0.18630        2.29810       -1.90620
F          2.06760        3.31280       -1.19280
F          2.12510        1.16270       -1.87960
Br         3.71450        4.17750        4.04690
Br         3.77640        1.12580        4.52610
Br         5.36240        2.41850        2.08480
