21
TSA8_9_NH2_Me_NH2
C          2.93460        0.37750       -1.23950
C          1.43220        0.22650       -1.37570
N          3.33160        0.33070        0.17150
H          3.41410       -0.48390       -1.75690
C          0.86040       -0.94200       -2.12100
C          3.45490        1.66010       -1.94000
C          2.93730        2.93410       -1.29840
C          2.17570        3.80670       -1.96450
O          0.67930        1.05200       -0.88000
N          4.91940        1.66820       -1.94130
H          3.11920        1.60890       -3.00100
H          3.19720        3.15430       -0.26740
H          1.89190        3.63260       -2.99730
H          1.82930        4.70900       -1.47060
H          2.83770        1.07190        0.71950
H          3.06100       -0.59630        0.57390
H          1.22710       -0.93060       -3.16900
H         -0.24970       -0.90000       -2.13000
H          1.17970       -1.88600       -1.63260
H          5.28610        1.75470       -0.96520
H          5.26250        2.48510       -2.49790
