20
TSA8_9_CH2F_CF3_Br
C          2.68760        1.24200        0.01660
C          1.32260        1.76530       -0.39380
C          2.52080       -0.15300        0.65280
H          3.27390        1.12230       -0.92150
C          1.03840        2.07240       -1.84040
C          3.50000        2.23930        0.90270
C          3.02820        2.39700        2.33410
C          1.91550        3.04830        2.68270
O          0.43300        1.89840        0.43170
Br         5.37420        1.69910        0.94970
H          3.52380        3.23790        0.41450
H          3.64540        1.99620        3.13340
H          1.27550        3.52010        1.94980
H          1.65100        3.13650        3.73160
F          3.74130       -0.74400        0.91710
H          1.96730       -0.81710       -0.04560
H          1.94110       -0.08450        1.59830
F         -0.26340        2.51640       -1.99820
F          1.90360        3.05570       -2.28310
F          1.21720        0.93170       -2.60080
