20
TSA8_9_CH2F_CF3_Br
C          1.75110        0.12330       -0.04310
C          1.45250        1.42560       -0.31970
C          1.92290       -0.56240        1.28360
H          1.86250       -0.56640       -0.87340
C          1.24870        1.85390       -1.75820
C          4.16610        3.89670        1.69420
C          3.46430        2.77220        1.51660
C          1.98090        2.71200        1.76530
O          1.31290        2.44500        0.58320
Br         6.04480        3.92940        1.34310
H          3.68520        4.80960        2.03160
H          3.97270        1.87670        1.17230
H          1.61230        3.69250        2.13680
H          1.74020        2.00650        2.56960
F          3.20920       -1.05880        1.38090
H          1.20890       -1.41150        1.32520
H          1.70660        0.04080        2.16490
F         -0.02420        2.37370       -1.89590
F          2.16950        2.83900       -2.06400
F          1.40030        0.81680       -2.66310
