17
TSA8_9_Br_CBr3_F
C          2.76280       -1.37320       -1.26440
C          1.47880       -2.04680       -0.82300
Br         2.60070        0.54980       -1.02030
H          3.58960       -1.67830       -0.58800
C          1.45170       -2.98720        0.36390
C          3.18670       -1.77720       -2.69980
C          2.15170       -1.53730       -3.77790
C          1.73520       -0.32520       -4.15670
O          0.44380       -1.80470       -1.42710
F          3.47990       -3.13030       -2.69510
H          4.12120       -1.24020       -2.97000
H          1.73560       -2.40070       -4.28980
H          0.99460       -0.23400       -4.94480
H          2.12400        0.58080       -3.71290
Br         2.03270       -2.05820        1.96360
Br        -0.33460       -3.68000        0.70020
Br         2.62080       -4.50310        0.06040
