17
TSA8_9_Br_CBr3_F
C          1.84600       -0.26550       -0.03270
C          1.53880       -1.48390       -0.54680
Br         2.09430        1.35030       -1.04340
H          1.92990       -0.11380        1.03410
C          1.27640       -2.69040        0.34150
C          3.47590       -2.16650       -4.80610
C          2.68520       -2.36700       -3.74900
C          2.22650       -1.22180       -2.89620
O          1.41660       -1.70660       -1.88690
F          3.87800       -3.21990       -5.56370
H          3.80510       -1.16640       -5.07160
H          2.37120       -3.37870       -3.50590
H          1.64410       -0.51300       -3.52290
H          3.12820       -0.71890       -2.48700
Br         1.41020       -2.40500        2.26640
Br        -0.50750       -3.35880       -0.01380
Br         2.54380       -4.08230       -0.11780
