17
TSA8_9_Br_CBr3_F
C          2.89850       -0.87060       -1.31000
C          1.47290       -1.40560       -1.01250
Br         2.77500        1.06120       -1.55860
H          3.58550       -0.95480       -0.44350
C          1.34410       -2.70630       -0.18420
C          3.51990       -1.54070       -2.54630
C          2.46920       -1.88750       -3.61400
C          1.15710       -1.13090       -3.39100
O          0.56710       -1.40280       -2.12310
F          4.18050       -2.70160       -2.18360
H          4.28880       -0.85810       -2.96520
H          2.21740       -2.96650       -3.56190
H          0.44720       -1.46260       -4.17720
H          1.28530       -0.04090       -3.53810
Br         2.35530       -2.59120        1.46900
Br        -0.51350       -2.93010        0.32370
Br         1.87390       -4.31890       -1.11920
