16
TSA8_9_NO2_H_F
C          1.72560       -0.18800        2.01620
C          1.17080        1.06970        1.32460
N          1.42650       -1.36690        1.21230
H          2.83200       -0.10420        2.09250
H          1.53800        2.01030        1.79520
C          1.13370       -0.24010        3.44300
C         -0.39440       -0.12340        3.39970
C         -0.77210        1.12060        2.58590
O         -0.24600        1.04240        1.27110
F          1.52240       -1.38920        4.10920
H          1.51880        0.63380        4.01370
H         -0.85160       -1.01660        2.92720
H         -0.43270        2.05070        3.09660
H         -1.87860        1.17960        2.52460
O          1.84970       -1.43820        0.09800
O          0.76080       -2.38940        1.70680
