20
TSA8_9_CH2F_Cl_CCl3
C          1.43700       -1.98690        1.71870
C          0.99820       -0.52280        1.50820
C          1.53240       -2.67500        0.34570
H          2.46480       -1.98410        2.14180
Cl         1.34690        0.55730        2.89830
C          0.45270       -2.65030        2.73410
C         -0.99470       -2.43980        2.25690
C         -1.24360       -0.94780        2.00980
O         -0.34260       -0.41700        1.05070
C          0.72340       -4.13520        3.11400
H          0.56760       -2.07750        3.68230
H         -1.19290       -3.00640        1.32320
H         -1.19950       -0.37630        2.96220
H         -2.27780       -0.82910        1.62550
F          2.40260       -1.97320       -0.47090
H          0.54530       -2.72520       -0.15800
H          1.94380       -3.69580        0.45140
Cl        -0.32490       -4.59120        4.48630
Cl         0.38020       -5.30360        1.80370
Cl         2.41130       -4.35690        3.64950
