21
TSA8_9_NO2_CH2F_NH2
C          2.78600        0.84840       -1.47000
C          1.62830        0.06970       -2.06380
N          2.39000        1.43220       -0.19730
H          3.61830        0.13390       -1.26580
C          1.73960       -1.41260       -2.27330
C          3.38440        1.88700       -2.47220
C          2.41810        2.93510       -3.00260
C          1.94170        3.94200       -2.26610
O          0.59660        0.64840       -2.37340
N          3.97130        1.15840       -3.60280
H          4.22340        2.41620       -1.96680
H          2.12860        2.89690       -4.04960
H          1.26980        4.66620       -2.71580
H          2.22750        4.07470       -1.23040
O          2.96930        1.12250        0.80030
O          1.30830        2.17540       -0.09990
F          0.57270       -1.91950       -2.81900
H          1.92860       -1.91130       -1.30020
H          2.58180       -1.62680       -2.96330
H          4.48790        1.82570       -4.22190
H          3.22720        0.68920       -4.16910
