21
TSA8_9_NO2_CH2F_NH2
C          1.77160        0.01220       -0.12100
C          1.40630        0.16990       -1.41690
N          1.80780        1.06300        0.84430
H          2.03070       -0.98620        0.22440
C          1.30890       -1.03710       -2.31450
C          3.83270        2.84470       -3.84330
C          2.87830        2.00990       -3.41090
C          2.02380        2.37400       -2.22790
O          1.09350        1.38540       -1.94190
N          4.64230        2.51320       -4.95770
H          3.99590        3.79220       -3.33660
H          2.72310        1.06860       -3.92450
H          1.47660        3.30930       -2.47090
H          2.68020        2.56490       -1.35380
O          2.17930        0.81920        1.95200
O          1.29520        2.24810        0.59230
F          0.01760       -1.14630       -2.79590
H          1.56570       -1.97750       -1.78150
H          2.00420       -0.93680       -3.16980
H          5.37140        3.16900       -5.27200
H          4.51660        1.62370       -5.46330
