21
TSA8_9_NO2_CH2F_NH2
C          3.04180        0.84270       -1.30720
C          1.58380        0.40740       -1.59220
N          3.11130        1.41970        0.02750
H          3.68790       -0.06650       -1.30410
C          1.41660       -0.69910       -2.64010
C          3.57190        1.85280       -2.36690
C          2.45290        2.37180       -3.28270
C          1.18170        2.62250       -2.46800
O          0.66260        1.48000       -1.78540
N          4.64860        1.26300       -3.16470
H          3.99940        2.72770       -1.82760
H          2.21360        1.65120       -4.08760
H          0.40470        2.98940       -3.17070
H          1.37170        3.43310       -1.73530
O          3.79410        0.90670        0.86250
O          2.42730        2.50110        0.33390
F          0.09310       -1.09680       -2.68050
H          2.03480       -1.57380       -2.34970
H          1.72400       -0.38610       -3.65290
H          5.02420        1.97980       -3.82800
H          4.28590        0.45170       -3.71580
