17
TSA8_9_F_NO2_OH
C          1.78300        0.12150       -0.12800
C          1.45450        1.27760       -0.75220
F          2.11910        0.05410        1.18540
H          1.77220       -0.81700       -0.67200
N          1.08630        1.25320       -2.13160
C          4.22280        3.82230        1.34510
C          3.44900        2.74850        1.12650
C          1.94320        2.84050        1.12090
O          1.44230        2.49210       -0.12080
O          5.57100        3.72520        1.34000
H          3.77450        4.79380        1.52910
H          3.91860        1.78760        0.94290
H          1.62760        3.88490        1.33070
H          1.49880        2.20970        1.91740
O          0.79490        2.26980       -2.68480
O          1.07050        0.12590       -2.81280
H          6.03090        2.88900        1.17700
