20
TSA8_9_I_Me_CH2F
C          2.85540        0.94170        2.10090
C          1.41010        0.50480        1.69080
I          4.29760       -0.26270        1.03750
H          3.05960        1.97560        1.74500
C          0.50580        1.72330        1.50740
C          2.96880        0.86500        3.63510
C          2.67930       -0.56900        4.11840
C          1.68820       -1.28360        3.18340
O          0.77220       -0.36450        2.63220
C          4.28230        1.41390        4.20990
H          2.15600        1.51300        4.03250
H          3.58520       -1.20930        4.19070
H          1.14940       -2.06770        3.75390
H          2.21460       -1.82020        2.36390
H          0.40090        2.28040        2.46240
H         -0.49950        1.39260        1.17220
H          0.92500        2.39920        0.73240
F          5.37090        0.65810        3.81520
H          4.23380        1.40510        5.31970
H          4.43020        2.46330        3.87770
