17
TSA8_9_NH2_OH_Cl
C          2.80510       -1.19860        0.04790
C          1.43130       -1.41800        0.65560
N          2.75130       -0.14360       -0.96810
H          3.46790       -0.84650        0.86960
O          1.22980       -1.23610        1.97910
C          3.48990       -2.47500       -0.51750
C          2.83820       -3.09190       -1.73800
C          1.68420       -3.76310       -1.69560
O          0.47820       -1.70440       -0.04970
Cl         5.17420       -2.04890       -0.95220
H          3.56590       -3.24730        0.27870
H          3.34850       -3.02920       -2.69560
H          1.14500       -3.90960       -0.76860
H          1.28030       -4.19900       -2.60400
H          2.38870        0.73810       -0.53780
H          2.10880       -0.42060       -1.74550
H          1.94610       -0.98710        2.57980
