17
TSA8_9_NH2_OH_Cl
C          2.97640       -1.24970        0.03020
C          1.54860       -1.60940        0.54810
N          2.90560       -0.29700       -1.08210
H          3.55900       -0.76010        0.84310
O          1.49290       -1.44840        1.93410
C          3.69610       -2.54230       -0.38110
C          2.87460       -3.32880       -1.41380
C          1.36600       -3.19180       -1.13900
O          1.13310       -2.93610        0.22890
Cl         5.35620       -2.24810       -0.96640
H          3.76740       -3.17410        0.53140
H          3.06200       -3.01950       -2.46500
H          0.85290       -4.12500       -1.45060
H          0.90900       -2.38430       -1.75510
H          2.44860        0.58310       -0.74980
H          2.34900       -0.67070       -1.88140
H          0.88570       -0.67820        2.07200
