18
TSA8_9_Me_OH_H
C          2.58110       -1.11190       -0.41540
C          1.23680       -1.80400       -0.52700
C          2.39170        0.41100       -0.39570
H          3.02440       -1.40170        0.56310
O          0.81810       -2.64910        0.43980
C          3.61880       -1.54210       -1.48610
C          3.32150       -1.14920       -2.91460
C          2.38160       -1.73650       -3.65980
O          0.49160       -1.56710       -1.46380
H          4.57220       -1.03900       -1.21230
H          3.80520       -2.63680       -1.43300
H          3.93290       -0.37680       -3.37260
H          1.77310       -2.54500       -3.27360
H          2.23200       -1.41980       -4.68700
H          1.95500        0.76760       -1.35320
H          3.36760        0.91790       -0.23880
H          1.71230        0.70080        0.43450
H          1.36160       -2.85680        1.21270
