18
TSA8_9_Me_OH_H
C          2.75050       -1.00730       -0.47240
C          1.39490       -1.75170       -0.67560
C          2.59620        0.49960       -0.72280
H          3.07990       -1.11000        0.58610
O          1.13220       -2.56600        0.42800
C          3.80750       -1.63880       -1.38780
C          3.34620       -1.63450       -2.85270
C          1.82240       -1.82300       -2.95630
O          1.34210       -2.55680       -1.85220
H          4.80810       -1.16740       -1.28390
H          3.90700       -2.70230       -1.07760
H          3.61860       -0.70370       -3.39500
H          1.58250       -2.34800       -3.90350
H          1.29140       -0.84620       -3.01680
H          2.27570        0.72960       -1.75740
H          3.56450        1.01200       -0.53930
H          1.84270        0.92000       -0.02330
H          0.29940       -2.19720        0.81780
