19
TSA8_9_CH2F_NH2_H
C          2.68110       -1.22350       -0.19360
C          1.34400       -1.85420        0.15000
C          2.47120        0.22370       -0.66870
H          3.28150       -1.17980        0.74210
N          1.10220       -2.30820        1.40350
C          3.53700       -2.04480       -1.19690
C          3.02830       -2.12580       -2.61730
C          1.97890       -2.86520       -2.98680
O          0.46070       -1.92600       -0.69040
H          4.52580       -1.53930       -1.24890
H          3.72270       -3.06900       -0.80640
H          3.57080       -1.58470       -3.38730
H          1.42590       -3.46500       -2.27490
H          1.67980       -2.89160       -4.02970
F          3.68830        0.84620       -0.88270
H          1.91640        0.79780        0.10420
H          1.88350        0.24660       -1.61160
H          0.18870       -2.72240        1.64120
H          1.82120       -2.24880        2.13920
