19
TSA8_9_CH2F_NH2_H
C          1.77240       -0.09830        0.01460
C          1.50670       -1.42170        0.16810
C          1.78300        0.71200       -1.24930
H          1.97380        0.48020        0.91160
N          1.45660       -1.94080        1.48920
C          4.09940       -3.86020       -1.96540
C          3.46630       -2.71810       -1.68310
C          2.01160       -2.50530       -2.00770
O          1.28220       -2.31240       -0.84360
H          5.14920       -3.97200       -1.71370
H          3.58360       -4.68760       -2.44300
H          4.01790       -1.91530       -1.20430
H          1.58960       -3.39310       -2.52440
H          1.92050       -1.67820       -2.72200
F          3.05760        1.19210       -1.48350
H          1.09490        1.57230       -1.11080
H          1.40960        0.19030       -2.13630
H          1.25800       -2.94080        1.63950
H          1.61380       -1.34050        2.31210
