19
TSA8_9_CH2F_NH2_H
C          2.73250       -1.00650       -0.29320
C          1.35110       -1.71590       -0.08010
C          2.59810        0.29400       -1.10770
H          3.14450       -0.69090        0.69120
N          1.24690       -2.18120        1.29990
C          3.69420       -2.00910       -0.93920
C          3.13140       -2.52920       -2.26920
C          1.59430       -2.59570       -2.24240
O          1.13000       -2.84250       -0.93550
H          4.71950       -1.60460       -1.07460
H          3.76880       -2.87580       -0.24540
H          3.43410       -1.90880       -3.13960
H          1.25770       -3.40080       -2.92730
H          1.12310       -1.66880       -2.63380
F          3.83080        0.91470       -1.21040
H          1.90190        0.98500       -0.58740
H          2.21140        0.13140       -2.12990
H          0.31680       -2.64140        1.42480
H          1.26970       -1.35450        1.93920
