17
TSA8_9_OH_OH_OH
C          2.69530       -1.01720        0.48170
C          1.74970       -0.48020        1.53510
O          1.96320       -1.44750       -0.63610
H          3.39460       -0.20650        0.16600
O          1.83660        0.80190        1.95120
C          3.58810       -2.16240        1.01760
C          2.81680       -3.36790        1.51700
C          2.04870       -4.12160        0.72340
O          0.88680       -1.20100        2.01070
O          4.37520       -1.65580        2.06600
H          4.25490       -2.48490        0.18260
H          2.90180       -3.64560        2.56420
H          1.52490       -4.97800        1.13540
H          1.93840       -3.90720       -0.33330
H          1.77610       -0.64350       -1.18850
H          2.50170        1.41030        1.60020
H          5.19110       -2.22000        2.11530
