17
TSA8_9_OH_OH_OH
C          1.81800       -0.02680        0.25500
C          1.43680       -0.58670        1.42700
O          2.09170       -0.75490       -0.84270
H          1.87800        1.05570        0.18100
O          1.13230        0.22250        2.46820
C          4.36560       -3.82790        1.13730
C          3.47300       -2.90280        1.51230
C          2.04300       -2.95770        1.04650
O          1.31990       -1.93020        1.63090
O          5.64240       -3.78520        1.58160
H          4.06990       -4.63240        0.47190
H          3.78190       -2.10360        2.18210
H          1.60810       -3.92080        1.38870
H          1.96850       -2.94430       -0.05660
H          2.31730       -0.32220       -1.67880
H          1.19940        1.18620        2.42310
H          5.95770       -3.10320        2.19180
