22
TSA8_9_NO2_CBr3_Me
C          2.72690       -0.90080       -2.15140
C          1.19870       -0.79320       -1.78320
N          3.50430        0.07660       -1.39440
H          3.10950       -1.91040       -1.88590
C          0.56210       -2.11790       -1.32140
C          2.86240       -0.70270       -3.68400
C          2.26660        0.65250       -4.10300
C          1.02800        0.98570       -3.25680
O          0.40900       -0.20440       -2.81750
C          4.27300       -0.89770       -4.24920
H          2.23180       -1.49010       -4.15170
H          2.97950        1.50180       -4.01900
H          0.32100        1.59410       -3.85690
H          1.30150        1.62030       -2.38260
O          4.69490        0.08640       -1.47810
O          2.92070        0.88070       -0.53060
Br         1.45850       -2.79900        0.26040
Br        -1.29200       -1.81810       -0.83960
Br         0.61280       -3.47280       -2.71230
H          4.65880       -1.90010       -3.96640
H          4.97350       -0.11930       -3.88740
H          4.24150       -0.83630       -5.35810
