20
TSA8_9_CH2F_F_CHF2
C          2.02400       -1.26590       -1.88170
C          0.71730       -2.01040       -1.74560
C          1.86500        0.10540       -1.19190
H          2.80240       -1.83920       -1.33050
F          0.67510       -3.17840       -1.05290
C          2.45300       -1.13970       -3.37970
C          3.78120       -0.42180       -3.49650
C          3.91050        0.72980       -4.16300
O         -0.30580       -1.57440       -2.25150
C          2.60170       -2.50990       -4.07780
H          1.66930       -0.56650       -3.92590
H          4.65900       -0.85540       -3.02490
H          3.06010        1.19780       -4.64880
H          4.87990        1.21360       -4.22420
F          3.06390        0.79310       -1.14270
H          1.52460       -0.04150       -0.14400
H          1.11070        0.72570       -1.72240
F          3.53540       -3.29720       -3.42520
F          1.39600       -3.18540       -4.13090
H          2.93830       -2.35500       -5.12580
