16
TSA8_9_Br_OH_CN
C          1.52710       -0.03110        0.06850
C          1.71870       -0.75600        1.18390
Br         1.47400       -0.85980       -1.65990
H          1.46110        1.05660        0.08390
O          2.88740       -0.40400        1.75200
C          0.29390       -3.83290        2.94080
C         -0.08620       -3.10920        1.88790
C         -0.44930       -1.67530        2.09230
O          0.70930       -0.86660        2.13570
C          1.01620       -5.06510        2.78270
H          0.15180       -3.45220        3.94140
H          0.02190       -3.47150        0.86650
H         -1.10770       -1.55090        2.98880
H         -1.08850       -1.42650        1.27570
H          3.18650       -0.79020        2.58070
N          1.59690       -6.05590        2.65280
