21
TSA8_9_NH2_OMe_CN
C          1.53810       -0.00660       -0.07260
C          1.23050       -0.16720       -1.48680
N          1.62930        1.19970        0.64190
H          1.47390       -0.90060        0.53960
O          1.13740       -1.46750       -1.93260
C          1.44360        4.40800       -2.76420
C          1.67810        3.10360       -2.65580
C          0.68650        2.09160       -2.19410
O          1.19690        0.84160       -2.47360
C          2.52840        5.25510       -3.19910
H          0.47300        4.83770       -2.53720
H          2.65760        2.75360       -2.95430
H         -0.24970        2.19790       -2.75450
H          0.40660        2.24360       -1.11870
H          2.59930        1.06340        0.94090
H          1.07320        1.31470        1.52190
C          1.30630       -1.70140       -3.29290
H          1.75780       -2.69790       -3.42030
H          2.00590       -0.98410       -3.80610
H          0.32300       -1.65900       -3.79390
N          3.42960        5.89110       -3.55000
