21
TSA8_9_NH2_OMe_CN
C          2.09470        1.59450       -1.10470
C          1.01920        0.51440       -1.53230
N          2.07460        1.77040        0.35700
H          3.09230        1.22650       -1.43850
O          1.59200       -0.80090       -1.55010
C          1.86480        2.99820       -1.72730
C          1.20740        2.89900       -3.08240
C         -0.06930        2.11490       -2.87750
O          0.25320        0.76570       -2.70940
C          3.10630        3.77380       -1.88290
H          1.16460        3.58160       -1.09380
H          1.85400        2.37950       -3.83120
H         -0.68340        2.20530       -3.79230
H         -0.67990        2.50030       -2.02690
H          2.78830        1.20850        0.86620
H          1.11260        1.59580        0.74410
C          1.55510       -1.40010       -2.84660
H          1.98810       -2.42090       -2.81050
H          2.13820       -0.81740       -3.59770
H          0.50570       -1.54580       -3.19490
N          4.06430        4.40990       -2.01750
