20
TSA8_9_I_CCl3_Me
C          1.74980       -0.12860       -0.10760
C          1.53090       -1.18790       -0.92800
I          2.00610        1.90560       -0.67200
H          1.76110       -0.25020        0.96720
C          1.27320       -2.58670       -0.38960
C          2.19030       -1.93430       -4.98370
C          2.95670       -1.26060       -4.11550
C          2.35450       -0.34640       -3.09100
O          1.50080       -1.07590       -2.28600
C          2.79890       -2.85550       -5.99450
H          1.10950       -1.82150       -4.95880
H          4.03710       -1.37750       -4.14290
H          1.78570        0.45920       -3.60230
H          3.18790        0.09410       -2.50640
Cl         2.51600       -3.68570       -1.03910
Cl         1.28920       -2.75030        1.39390
Cl        -0.31860       -3.14300       -0.96440
H          3.36370       -3.66060       -5.47860
H          3.48620       -2.28990       -6.65840
H          1.99930       -3.31640       -6.61110
