20
TSA8_9_I_CCl3_Me
C          2.80370       -1.88320       -2.18400
C          1.49280       -1.32370       -1.53500
I          4.43250       -0.57630       -1.65630
H          3.07220       -2.87340       -1.75840
C          0.75480       -2.33420       -0.63750
C          2.60180       -2.01450       -3.70630
C          2.17260       -0.66510       -4.31240
C          1.28290        0.11790       -3.33340
O          0.58650       -0.77610       -2.49300
C          3.80970       -2.60390       -4.43880
H          1.75310       -2.71960       -3.84930
H          3.02230       -0.00830       -4.60050
H          0.57220        0.75170       -3.90220
H          1.89130        0.82210       -2.71880
Cl         0.19850       -3.74950       -1.57170
Cl         1.80700       -2.88720        0.69360
Cl        -0.66680       -1.55020        0.09840
H          4.06370       -3.59820       -4.01410
H          4.69440       -1.93940       -4.35140
H          3.57160       -2.73300       -5.51620
