18
TSA8_9_NO2_NH2_H
C          2.07650        1.50390        0.04540
C          1.44890        0.49510       -0.89640
N          2.02140        1.00390        1.40730
H          3.14350        1.65450       -0.24110
N          2.17980       -0.07360       -1.88430
C          1.37040        2.87000       -0.03890
C          1.46450        3.45410       -1.42540
C          0.37600        3.75250       -2.14100
O          0.27180        0.19110       -0.76710
H          1.86320        3.57500        0.66480
H          0.30760        2.76280        0.27320
H          2.44550        3.63810       -1.85360
H          0.47940        4.17230       -3.13620
H         -0.62100        3.58340       -1.74560
O          3.03060        0.81290        2.01660
O          0.86280        0.76480        1.98550
H          1.75010       -0.75860       -2.52350
H          3.17360        0.16570       -2.01420
