18
TSA8_9_NO2_NH2_H
C          2.30500        1.84050       -0.20240
C          1.42700        1.01860       -1.17440
N          2.49530        1.13590        1.05120
H          3.29080        2.02600       -0.68940
N          2.03440       -0.27810       -1.45720
C          1.61380        3.18930        0.05420
C          1.29180        3.86710       -1.27640
C          0.49370        2.88650       -2.14390
O          1.26000        1.72460       -2.38970
H          2.25580        3.84770        0.67750
H          0.65610        3.02300        0.59510
H          2.23430        4.13640       -1.80230
H          0.26940        3.37510       -3.11470
H         -0.48570        2.63240       -1.67600
O          3.59490        0.84750        1.41600
O          1.45890        0.80160        1.79100
H          1.42450       -0.78110       -2.14100
H          2.03970       -0.84770       -0.58140
