17
TSA8_9_I_CF3_F
C          2.99580       -1.12750        0.78600
C          1.56780       -1.10220        1.28180
I          3.16380        0.10140       -0.96870
H          3.63220       -0.64970        1.56280
C          1.25430       -0.58350        2.65870
C          3.59930       -2.53470        0.55350
C          2.96740       -3.35180       -0.55020
C          1.76420       -3.92290       -0.44650
O          0.65530       -1.45960        0.55280
F          4.93470       -2.35980        0.23040
H          3.56930       -3.12180        1.49730
H          3.53820       -3.52400       -1.45860
H          1.16760       -3.83110        0.45310
H          1.37590       -4.51660       -1.26800
F         -0.10800       -0.63100        2.89960
F          1.90340       -1.35730        3.60290
F          1.68280        0.72660        2.77020
