17
TSA8_9_I_CF3_F
C          3.03160       -1.15620        0.67410
C          1.52660       -1.30990        1.07080
I          3.17760       -0.38660       -1.32850
H          3.54250       -0.39830        1.30670
C          1.21640       -0.67590        2.42970
C          3.73390       -2.51040        0.81310
C          3.02470       -3.58490       -0.02490
C          1.51000       -3.32450       -0.08500
O          1.08220       -2.66770        1.08710
F          5.07320       -2.43290        0.47470
H          3.65850       -2.81100        1.88040
H          3.40080       -3.64710       -1.06900
H          0.97390       -4.28780       -0.20840
H          1.24400       -2.71320       -0.97840
F         -0.13440       -0.80250        2.69790
F          1.93660       -1.30370        3.43050
F          1.53690        0.66960        2.40880
