21
TSA8_9_CCl3_CN_CCl3
C          1.79620       -0.06080       -0.01580
C          1.47710       -1.31960       -0.45270
C          1.80980        1.35890       -0.57770
H          2.17790       -0.03740        1.00430
C          1.78010       -2.40010        0.45680
C          0.69080       -1.82820       -4.99600
C          1.04230       -1.17100       -3.87860
C          0.20160       -1.16720       -2.63360
O          0.95300       -1.74820       -1.63830
C          1.60460       -1.86850       -6.19500
H         -0.25820       -2.35720       -5.03580
H          1.99170       -0.64650       -3.84700
H         -0.71830       -1.77500       -2.78270
H         -0.16730       -0.17220       -2.35480
Cl         1.46440        1.66640       -2.29000
Cl         0.73670        2.38910        0.40540
Cl         3.46500        1.96810       -0.33910
N          2.05830       -3.25550        1.18480
Cl         0.84460       -2.78820       -7.51760
Cl         1.95750       -0.22100       -6.77900
Cl         3.13590       -2.67690       -5.76210
