21
TSA8_9_CCl3_CN_CCl3
C          2.07260       -0.79140       -2.00160
C          1.06500       -1.40600       -0.93330
C          2.15410        0.76730       -1.64910
H          3.07960       -1.22830       -1.85970
C          1.65350       -2.30430        0.06730
C          1.53230       -1.33970       -3.39360
C          0.12280       -0.81300       -3.60330
C         -0.72800       -1.00830       -2.35140
O         -0.13750       -1.95370       -1.46890
C          2.26570       -1.41300       -4.77490
H          1.45790       -2.43390       -3.19570
H          0.08560        0.23740       -3.96660
H         -1.70570       -1.37250       -2.71140
H         -0.90390       -0.04110       -1.83780
Cl         2.04600        1.87910       -3.02620
Cl         0.92640        1.36870       -0.46000
Cl         3.70740        1.11400       -0.83770
N          2.12920       -3.04600        0.81710
Cl         1.22280       -2.37630       -5.88730
Cl         2.55620        0.14140       -5.58520
Cl         3.80020       -2.31570       -4.68260
