22
TSA8_9_Me_CHF2_NH2
C          2.83740        1.26240        0.20410
C          1.42580        1.51390       -0.28640
C          2.91830       -0.13080        0.85330
H          3.50780        1.25470       -0.68480
C          1.16390        1.69610       -1.75590
C          3.32090        2.41850        1.12740
C          2.58120        2.46650        2.45140
C          1.83180        3.51120        2.81380
O          0.49660        1.56240        0.50690
N          4.76130        2.31370        1.37010
H          3.15410        3.36600        0.56350
H          2.66820        1.62840        3.13630
H          1.71500        4.37340        2.16570
H          1.32530        3.50220        3.77370
H          2.24860       -0.20470        1.73600
H          3.95470       -0.36820        1.16590
H          2.60310       -0.90390        0.12030
F         -0.18310        1.90660       -1.99330
F          1.87980        2.78190       -2.22580
H          1.48550        0.78480       -2.30220
H          4.98100        1.48710        1.97100
H          5.08980        3.17290        1.86900
