17
TSA8_9_CCl3_I_H
C          1.60410       -1.51950       -0.42430
C          0.65800       -0.96090        0.61960
C          1.65560       -0.61860       -1.69710
H          2.62100       -1.47540        0.02420
I          1.39720       -0.37930        2.51080
C          1.37030       -3.03450       -0.71470
C          0.05020       -3.43080       -1.33150
C         -1.10050       -3.43560       -0.65230
O         -0.52590       -0.78720        0.37930
H          2.16700       -3.36410       -1.41270
H          1.51280       -3.62480        0.21660
H          0.04280       -3.77260       -2.36210
H         -1.14260       -3.15190        0.39310
H         -2.01590       -3.75200       -1.14060
Cl         0.10390       -0.55160       -2.58410
Cl         2.09260        1.05490       -1.24810
Cl         2.91230       -1.18420       -2.83290
