17
TSA8_9_CCl3_I_H
C          1.79520        0.01280       -0.01900
C          1.07760       -1.06590        0.34700
C          2.20490        0.42680       -1.42110
H          2.12220        0.67890        0.77480
I          0.68500       -1.31180        2.42810
C         -0.13390       -5.09550       -1.64900
C         -0.46510       -3.80740       -1.51970
C         -0.18430       -3.03680       -0.26330
O          0.62120       -1.96060       -0.56480
H         -0.35200       -5.62220       -2.57200
H          0.35340       -5.63500       -0.84230
H         -0.95380       -3.30070       -2.34760
H          0.31740       -3.68350        0.49050
H         -1.14860       -2.67520        0.15440
Cl         1.68210       -0.64120       -2.75630
Cl         1.54000        2.04670       -1.73830
Cl         3.98040        0.53040       -1.47780
