17
TSA8_9_Br_CCl3_F
C          2.80770       -1.58610       -1.04810
C          1.47610       -2.11620       -0.55600
Br         2.75740        0.35730       -1.09310
H          3.59930       -1.83570       -0.30910
C          1.37080       -2.88620        0.74410
C          3.23480       -2.22470       -2.39410
C          2.23480       -2.08850       -3.52200
C          1.90640       -0.92510       -4.09110
O          0.46960       -1.90450       -1.21730
F          3.44130       -3.57670       -2.17810
H          4.20620       -1.79150       -2.71530
H          1.76940       -2.99210       -3.90570
H          1.18450       -0.90820       -4.90110
H          2.34980        0.01150       -3.78040
Cl         2.38280       -4.35090        0.67790
Cl         1.91570       -1.86630        2.09990
Cl        -0.31020       -3.39500        1.07630
