17
TSA8_9_Br_CCl3_F
C          1.87400       -0.22800       -0.02770
C          1.52920       -1.49320       -0.37770
Br         2.13620        1.22370       -1.25830
H          1.98560        0.05630        1.01010
C          1.26450       -2.57720        0.65430
C          3.45660       -2.93250       -4.41780
C          2.61860       -2.89880       -3.37930
C          2.25030       -1.60460       -2.71730
O          1.37750       -1.86890       -1.67860
F          3.77320       -4.11970       -4.99710
H          3.89370       -2.01790       -4.80850
H          2.19860       -3.83010       -3.00800
H          1.75230       -0.94300       -3.45760
H          3.18270       -1.12440       -2.34840
Cl         2.39840       -3.92090        0.36870
Cl         1.44230       -2.07820        2.36540
Cl        -0.39370       -3.19260        0.44330
