16
TSA8_9_NH2_Cl_Br
C          1.99510       -0.16830        0.06180
C          1.20630       -1.12240        0.57530
N          2.29970       -0.11200       -1.32290
H          2.41470        0.58770        0.71910
Cl         0.88150       -1.10650        2.31210
C         -0.29610       -5.23730       -1.01200
C         -0.56270       -3.92760       -0.96880
C         -0.16880       -3.07530        0.20150
O          0.67270       -2.07450       -0.23330
Br        -0.81820       -6.28060       -2.52640
H          0.21870       -5.73130       -0.19360
H         -1.07940       -3.45950       -1.80160
H          0.34390       -3.68200        0.98100
H         -1.08780       -2.62940        0.63940
H          2.90830        0.63850       -1.67900
H          1.92450       -0.80400       -1.98790
