16
TSA8_9_NH2_Cl_Br
C          1.79410       -2.07850       -0.52750
C          1.10920       -1.36040        0.65440
N          1.67670       -1.26920       -1.74430
H          2.87890       -2.19940       -0.31200
Cl         1.59620       -1.98040        2.26450
C          1.16260       -3.47170       -0.70940
C         -0.35920       -3.35740       -0.79950
C         -0.86870       -2.59210        0.42760
O         -0.30280       -1.29080        0.50190
Br         1.87590       -4.39260       -2.26280
H          1.40160       -4.09070        0.18280
H         -0.66660       -2.82680       -1.72500
H         -0.67750       -3.16840        1.35950
H         -1.97110       -2.49540        0.34530
H          2.20540       -0.37610       -1.61330
H          0.68240       -1.02700       -1.95000
