20
TSA8_9_OH_CH2F_NO2
C          2.99460        0.86950       -1.13110
C          1.56210        0.49540       -1.44810
O          3.24500        0.67270        0.23740
H          3.67110        0.21570       -1.73140
C          1.27600       -0.60390       -2.43050
C          3.31770        2.33730       -1.53090
C          2.50860        3.31590       -0.70700
C          1.63440        4.16140       -1.26110
O          0.63780        1.07510       -0.89700
N          4.73040        2.65560       -1.37190
H          3.07090        2.44780       -2.61200
H          2.64610        3.33530        0.37060
H          1.46800        4.17620       -2.33340
H          1.07620        4.84930       -0.63430
H          3.31170       -0.30800        0.37820
F         -0.08750       -0.79250       -2.57570
H          1.73420       -1.54910       -2.07110
H          1.71090       -0.34160       -3.41760
O          5.50650        1.85420       -0.94500
O          5.16990        3.84270       -1.73390
