20
TSA8_9_OH_CH2F_NO2
C          1.77420       -0.01130       -0.16020
C          1.46730        0.29360       -1.44320
O          2.02750        0.92920        0.77080
H          1.80980       -1.05260        0.14970
C          1.17220       -0.81830       -2.41180
C          4.09040        3.64120       -2.02700
C          3.35560        2.75070       -1.33720
C          1.84850        2.75070       -1.39610
O          1.39240        1.56440       -1.94140
N          5.51360        3.64080       -1.99160
H          3.59040        4.38640       -2.64020
H          3.84960        2.00170       -0.72690
H          1.49430        3.57830       -2.04720
H          1.40500        2.92710       -0.39490
H          2.23380        0.67900        1.68190
F         -0.10660       -0.66650       -2.91380
H          1.25340       -1.82240       -1.94300
H          1.89790       -0.76820       -3.25050
O          6.11500        2.83850       -1.34170
O          6.17810        4.52870       -2.69750
