20
TSA8_9_OH_CH2F_NO2
C          3.04590        0.96700       -0.97220
C          1.54630        0.74600       -1.37010
O          3.13480        1.32580        0.38310
H          3.63900        0.03550       -1.13090
C          1.41800       -0.34350       -2.43550
C          3.61280        2.10610       -1.84460
C          2.79720        3.39410       -1.60650
C          1.34690        3.07720       -1.20180
O          0.89050        1.91890       -1.86250
N          5.03040        2.35920       -1.63700
H          3.46870        1.80000       -2.90380
H          3.22450        4.03610       -0.80500
H          0.69940        3.94280       -1.45160
H          1.25580        2.93730       -0.10030
H          2.91500        0.51110        0.90640
F          0.08180       -0.56770       -2.71250
H          1.86210       -1.29090       -2.06380
H          1.93580       -0.04160       -3.37020
O          5.65910        1.73970       -0.83170
O          5.63970        3.26990       -2.36550
