23
TSA8_9_CHF2_CBr3_CH2F
C          2.08670       -2.11190       -0.71140
C          0.81540       -2.62740       -0.04730
C          1.85660       -0.63380       -1.11080
H          2.91060       -2.12770        0.03610
C          0.77130       -2.97400        1.43110
C          2.48770       -2.99540       -1.93950
C          3.76170       -2.49200       -2.58440
C          3.79850       -2.07270       -3.85320
O         -0.20210       -2.72690       -0.71900
C          2.69920       -4.47230       -1.56760
H          1.65430       -2.96030       -2.67750
H          4.67680       -2.47070       -1.99910
H          2.90750       -2.07670       -4.47340
H          4.73140       -1.71900       -4.27930
F          3.01950       -0.05030       -1.57940
F          0.87360       -0.52700       -2.08020
H          1.53720       -0.05290       -0.21980
Br         1.21450       -1.41320        2.49220
Br        -0.99740       -3.56840        1.98100
Br         2.01680       -4.38690        1.88080
F          3.74730       -4.61310       -0.67430
H          2.93570       -5.05770       -2.48230
H          1.77730       -4.90530       -1.12740
