23
TSA8_9_CHF2_CBr3_CH2F
C          1.72800       -0.15740        0.05900
C          1.45770       -1.49130        0.15460
C          1.85750        0.69590       -1.18140
H          1.84210        0.42500        0.96220
C          1.24150       -2.16400        1.50600
C          2.67440       -4.65290       -3.02340
C          2.81880       -3.83200       -1.97480
C          2.25820       -2.43920       -1.96380
O          1.35460       -2.32440       -0.92190
C          3.25040       -6.03630       -3.00110
H          2.13510       -4.32620       -3.90880
H          3.36160       -4.17300       -1.09860
H          1.73950       -2.22360       -2.92240
H          3.11210       -1.73820       -1.83880
F          3.15450        1.15910       -1.29610
F          1.47440        0.07510       -2.34880
H          1.17890        1.56610       -1.06090
Br         1.34470       -1.02900        3.09020
Br        -0.51650       -2.97970        1.51650
Br         2.55610       -3.56760        1.73900
F          4.62350       -5.97390       -2.84470
H          3.01910       -6.55370       -3.95530
H          2.80960       -6.61570       -2.16220
