17
TSA8_9_Cl_H_CCl3
C          2.19560       -0.81980        2.60300
C          1.14090       -0.68870        1.48040
Cl         3.39980       -2.01450        2.03160
H          2.73950        0.14010        2.73400
H          0.91790       -1.66750        0.99400
C          1.50160       -1.15000        3.96650
C          0.23520       -1.96260        3.68680
C         -0.71810       -1.06050        2.85870
O         -0.06470       -0.14600        1.97360
C          2.38840       -1.75910        5.08650
H          1.14300       -0.17400        4.37100
H          0.52110       -2.87640        3.12080
H         -1.26240       -0.43500        3.59670
H         -1.47280       -1.67320        2.32140
Cl         1.46880       -1.79010        6.61710
Cl         2.89970       -3.44210        4.76370
Cl         3.83780       -0.75420        5.36040
