21
TSA8_9_CF3_OH_CF3
C          2.44320        2.05820        0.39990
C          1.36480        1.60990       -0.63390
C          2.59890        0.95690        1.47300
H          3.42710        2.13520       -0.11590
O          1.94180        1.32700       -1.87340
C          2.07080        3.48170        0.91360
C          0.60480        3.54700        1.38390
C         -0.30640        2.70970        0.47050
O          0.29830        2.53350       -0.79360
C          3.02630        4.12000        1.93750
H          2.12350        4.12510        0.00510
H          0.44110        3.23750        2.43860
H         -1.28720        3.21670        0.36460
H         -0.53200        1.71900        0.93180
F          3.66130        1.23490        2.31150
F          1.44980        0.81950        2.22790
F          2.86540       -0.25250        0.85440
H          1.80100        0.35540       -2.00090
F          2.95560        3.48070        3.16150
F          4.32640        4.07130        1.46730
F          2.67700        5.44600        2.12510
