23
TSA8_9_CF3_F_Et
C          1.50340        0.03880        0.14070
C          1.94620        1.30250        0.18230
C          2.26110       -1.08900        0.77810
H          0.56480       -0.17710       -0.35900
F          3.12580        1.59910        0.79260
C         -0.04680        4.23470        2.43380
C          0.75290        3.63310        1.54420
C          0.19950        2.92420        0.33710
O          1.21580        2.30330       -0.36680
C          0.51310        4.91720        3.65390
H         -1.12340        4.22730        2.28510
H          1.82670        3.64100        1.70360
H         -0.30840        3.66070       -0.32050
H         -0.54440        2.16150        0.65700
F          3.52430       -1.18720        0.22360
F          2.37230       -0.86420        2.13870
F          1.58450       -2.27700        0.57380
C          1.27690        3.93890        4.54880
H         -0.32610        5.35090        4.23820
H          1.19020        5.74120        3.34190
H          0.61030        3.11170        4.87320
H          1.65220        4.47070        5.44770
H          2.15040        3.50900        4.01410
