23
TSA8_9_CF3_F_Et
C          1.10780        1.40370        1.29150
C          1.89350        1.78660        0.02230
C          1.88840        0.41000        2.16190
H          0.23740        0.82120        0.91310
F          2.98760        2.58070        0.31910
C          0.50740        2.68920        1.96480
C          0.12480        3.70850        0.85310
C         -0.08810        3.02720       -0.50470
O          1.09710        2.40000       -0.99140
C          1.34820        3.47460        3.01520
H         -0.42980        2.37310        2.47510
H          0.95630        4.42900        0.67830
H         -0.38460        3.81240       -1.22980
H         -0.92070        2.29270       -0.45410
F          3.09680        0.94510        2.56790
F          1.12890        0.03480        3.25640
F          2.15780       -0.72750        1.41890
C          1.49830        2.81760        4.39200
H          0.79970        4.42000        3.22870
H          2.34290        3.74940        2.60330
H          0.50070        2.56840        4.81040
H          1.99540        3.53540        5.07880
H          2.12280        1.91410        4.39030
