20
TSA8_9_Cl_OMe_NH2
C          1.48790       -0.19610       -0.34570
C          1.75040        1.04700        0.07030
Cl         1.14600       -1.49520        0.79230
H          1.48920       -0.42650       -1.40630
O          1.99290        2.00030       -0.87340
C          4.34880        0.86510        3.49120
C          3.07350        1.23230        3.30410
C          2.64220        2.04490        2.11730
O          1.71900        1.30790        1.40560
N          4.72240        0.08600        4.61400
H          5.11410        1.15640        2.77730
H          2.31490        0.93110        4.02150
H          3.52600        2.29150        1.49350
H          2.16970        2.98080        2.47970
C          2.08590        3.36180       -0.67130
H          2.17410        3.86160       -1.65760
H          2.98960        3.63050       -0.09460
H          1.17160        3.73790       -0.16520
H          4.02460       -0.21550        5.31030
H          5.70570       -0.19430        4.73680
