23
TSA8_9_Cl_CBr3_Et
C          2.97300       -1.12740       -1.99670
C          1.61160       -1.80470       -1.89970
Cl         2.97050        0.27950       -0.89090
H          3.75010       -1.81390       -1.60460
C          1.44300       -3.19070       -1.30270
C          3.39220       -0.65580       -3.42530
C          2.39620        0.33170       -4.00510
C          2.72830        1.59960       -4.26940
O          0.61590       -1.18340       -2.24080
C          3.59020       -1.80790       -4.43370
H          4.37550       -0.14150       -3.32480
H          1.38470        0.01010       -4.22810
H          1.99120        2.27640       -4.68920
H          3.72770        1.97440       -4.07110
Br         2.13160       -3.21710        0.50990
Br        -0.42850       -3.71800       -1.21890
Br         2.35860       -4.54480       -2.33630
C          4.79580       -2.69220       -4.10380
H          3.79230       -1.37210       -5.43750
H          2.66480       -2.41850       -4.50840
H          5.72420       -2.08250       -4.09500
H          4.89930       -3.47850       -4.88100
H          4.69440       -3.18840       -3.12150
