18
TSA8_9_CF3_I_OH
C          1.63260       -0.96330        1.81930
C          0.99030        0.39640        1.47930
C          1.54190       -1.91030        0.59680
H          2.71910       -0.81510        2.00680
I          1.64320        2.04670        2.70430
C          0.97900       -1.49950        3.11590
C         -0.54770       -1.50250        2.98900
C         -1.01480       -0.10130        2.57340
O         -0.42260        0.31070        1.35050
O          1.45870       -2.77990        3.42880
H          1.25300       -0.79780        3.93810
H         -0.88970       -2.25520        2.25130
H         -0.81830        0.63470        3.38210
H         -2.11660       -0.12820        2.44190
F          2.21370       -1.33810       -0.46940
F          2.14580       -3.12160        0.88180
F          0.23680       -2.14240        0.20450
H          1.17160       -2.97240        4.35970
