20
TSA8_9_CH2F_CF3_Cl
C          2.62960        0.98260        0.44170
C          1.28130        1.65340        0.24830
C          2.41940       -0.54010        0.57010
H          3.21360        1.16760       -0.48740
C          1.00630        2.44760       -1.00030
C          3.47250        1.59580        1.60570
C          2.96790        1.32260        3.00760
C          1.89230        1.91530        3.53300
O          0.39530        1.51760        1.07810
Cl         5.15970        1.00210        1.50220
H          3.55740        2.69530        1.46310
H          3.52970        0.64430        3.64440
H          1.31380        2.64260        2.97860
H          1.59740        1.68970        4.55310
F          3.62180       -1.22100        0.59880
H          1.84210       -0.91140       -0.30380
H          1.84680       -0.77970        1.49180
F         -0.28260        2.95300       -0.98300
F          1.89840        3.50020       -1.08460
F          1.15300        1.63500       -2.10930
