20
TSA8_9_CH2F_CF3_Cl
C          2.75750        1.02890        0.58570
C          1.33470        1.68910        0.60020
C          2.62010       -0.47490        0.89170
H          3.20980        1.10450       -0.42840
C          1.00110        2.39650       -0.71560
C          3.65860        1.78930        1.58260
C          3.03020        1.82640        2.98300
C          1.50140        1.96760        2.89050
O          1.14370        2.60090        1.68130
Cl         5.34560        1.20630        1.64670
H          3.70450        2.84090        1.22270
H          3.26170        0.93280        3.60220
H          1.13290        2.55190        3.75830
H          0.99720        0.97640        2.96330
F          3.84210       -1.11480        0.79810
H          1.93820       -0.93850        0.14710
H          2.19890       -0.65670        1.90020
F         -0.28610        2.89790       -0.65540
F          1.88290        3.43990       -0.93450
F          1.07860        1.50180       -1.76790
