20
TSA8_9_CF3_CF3_F
C          1.66240       -1.13600       -1.25990
C          0.83650       -1.42580       -0.01910
C          1.58630        0.36390       -1.62750
H          2.72930       -1.34860       -1.02330
C          1.49750       -1.93710        1.23160
C          1.28330       -2.09960       -2.41670
C         -0.14660       -1.97190       -2.88710
C         -1.01190       -2.98700       -2.79540
O         -0.37260       -1.24500       -0.03060
F          2.12220       -1.89210       -3.49780
H          1.46590       -3.13590       -2.05390
H         -0.48760       -1.03870       -3.32110
H         -0.71740       -3.94220       -2.37220
H         -2.03120       -2.86360       -3.14640
F          2.38280        0.62940       -2.72700
F          0.29010        0.75710       -1.90690
F          2.04990        1.12110       -0.56590
F          0.56110       -2.13050        2.23260
F          2.12220       -3.14120        0.96420
F          2.43760       -1.02240        1.66780
