20
TSA8_9_CF3_CF3_F
C          1.91830       -0.08660       -0.01550
C          1.27120       -1.25420       -0.24310
C          2.09270        1.02890       -1.01990
H          2.35970        0.10290        0.95830
C          1.16390       -2.29850        0.86220
C         -0.10460       -3.36200       -4.18120
C         -0.42820       -2.42820       -3.28040
C         -0.05680       -2.55890       -1.83250
O          0.72420       -1.48010       -1.47060
F         -0.46140       -3.20400       -5.48200
H          0.44190       -4.25430       -3.89070
H         -0.97660       -1.54770       -3.60180
H          0.49620       -3.50630       -1.65690
H         -0.99090       -2.56390       -1.23290
F          3.44330        1.25280       -1.20830
F          1.51690        0.75510       -2.24710
F          1.51710        2.17850       -0.51220
F         -0.16540       -2.55350        1.13890
F          1.77610       -3.46810        0.45250
F          1.77390       -1.88590        2.03560
