18
TSA8_9_CBr3_I_OH
C          1.61590       -0.95700        1.51810
C          0.83370        0.27910        1.11840
C          1.66500       -1.99810        0.34760
H          2.66880       -0.63300        1.67300
I          1.80570        2.14970        0.97460
C          1.13390       -1.45240        2.91990
C         -0.30050       -1.92970        2.96660
C         -1.22790       -1.30420        3.69870
O         -0.36400        0.22220        0.88800
O          1.97210       -2.47260        3.39300
H          1.25140       -0.56910        3.59480
H         -0.59250       -2.81180        2.41200
H         -0.98530       -0.42050        4.28100
H         -2.24660       -1.67780        3.71790
Br         2.49220       -1.17530       -1.20920
Br         2.77750       -3.53590        0.76380
Br        -0.06330       -2.66180       -0.25330
H          1.87250       -2.49740        4.38100
