18
TSA8_9_CBr3_I_OH
C          1.78660       -0.00060        0.01760
C          1.10090        0.17640        1.16270
C          2.15350       -1.30830       -0.65940
H          2.12000        0.89540       -0.49820
I          0.76520        2.18510        1.79240
C         -0.06110       -2.49360        4.79650
C         -0.42570       -2.12610        3.55920
C         -0.13130       -0.75560        3.02250
O          0.64060       -0.87240        1.88740
O         -0.33010       -3.73140        5.26780
H          0.46050       -1.79580        5.44470
H         -0.94840       -2.83080        2.91860
H          0.40520       -0.14310        3.78030
H         -1.09270       -0.25890        2.77020
Br         1.39520       -1.29050       -2.43990
Br         4.08000       -1.38180       -0.82550
Br         1.58190       -2.96410        0.19190
H         -0.79030       -4.40000        4.74000
