22
TSA8_9_NH2_Me_CCl3
C          2.14000        1.63650       -1.20640
C          0.93680        1.36870       -2.08560
N          1.83200        1.20410        0.16100
H          2.99560        1.02100       -1.56330
C          1.02330        0.39470       -3.22190
C          2.57730        3.13790       -1.20500
C          3.68470        3.30980       -0.17800
C          3.53710        4.09320        0.89610
O         -0.12210        1.93600       -1.85870
C          3.06980        3.68380       -2.58460
H          1.70230        3.75160       -0.89300
H          4.62410        2.78100       -0.31280
H          2.61500        4.63890        1.07220
H          4.34680        4.19270        1.61130
H          1.01920        1.74090        0.54230
H          1.59930        0.18390        0.16620
H          1.79650        0.72500       -3.94580
H          0.04750        0.32100       -3.74870
H          1.29450       -0.60850       -2.83170
Cl         1.78600        3.70810       -3.82400
Cl         3.60320        5.38280       -2.41940
Cl         4.44750        2.74100       -3.22730
