21
TSA8_9_NH2_NH2_Me
C          2.11530       -1.27320       -1.75200
C          0.91450       -2.08920       -1.30740
N          1.94450        0.12150       -1.33440
H          3.03060       -1.66890       -1.25730
N          1.06040       -3.11170       -0.43240
C          2.32400       -1.34660       -3.28640
C          3.52360       -0.51210       -3.67610
C          3.41920        0.54580       -4.48630
O         -0.19720       -1.81860       -1.73830
C          2.55000       -2.78810       -3.76690
H          1.41030       -0.95610       -3.79010
H          4.50110       -0.77670       -3.28160
H          2.46100        0.84700       -4.89800
H          4.30250        1.12290       -4.73960
H          1.84860        0.16980       -0.29340
H          1.08620        0.52960       -1.77230
H          0.24180       -3.66060       -0.12930
H          1.98590       -3.35590       -0.05100
H          1.67180       -3.42490       -3.53160
H          3.44960       -3.22760       -3.28450
H          2.69280       -2.80280       -4.86930
