21
TSA8_9_NH2_NH2_Me
C          1.72570       -0.04840       -0.10140
C          1.50230       -1.16930       -0.83050
N          1.92410        1.24630       -0.65060
H          1.71660       -0.12790        0.98220
N          1.22340       -2.38010       -0.14510
C          2.32640       -2.43480       -4.71300
C          3.05010       -1.63910       -3.91190
C          2.39850       -0.59760       -3.05110
O          1.50750       -1.21520       -2.19230
C          2.96530       -3.48950       -5.56610
H          1.24570       -2.32800       -4.75040
H          4.13080       -1.74390       -3.87040
H          1.85400        0.12610       -3.69390
H          3.20530       -0.07290       -2.49600
H          2.08570        2.03860       -0.01290
H          1.82150        1.45220       -1.65120
H          1.04250       -3.24200       -0.67980
H          1.19380       -2.42220        0.88470
H          2.55980       -4.48260       -5.28100
H          4.06950       -3.50910       -5.44310
H          2.72850       -3.29340       -6.63200
