21
TSA8_9_NH2_NH2_Me
C          2.34100       -1.58460       -1.73470
C          1.00300       -0.81320       -1.45910
N          3.50930       -0.75510       -1.41420
H          2.39980       -2.48260       -1.07900
N          0.07110       -1.64820       -0.70440
C          2.34980       -2.04080       -3.20500
C          2.18370       -0.83150       -4.14510
C          1.25430        0.23050       -3.52940
O          0.33700       -0.36820       -2.64250
C          3.57590       -2.87940       -3.57180
H          1.45110       -2.68400       -3.33930
H          3.14090       -0.33260       -4.41270
H          0.71440        0.75460       -4.34450
H          1.82280        1.02540       -2.99780
H          3.47700       -0.49280       -0.40220
H          3.54240        0.12180       -1.97610
H         -0.13150       -2.52130       -1.24470
H          0.50170       -1.90600        0.21260
H          3.63530       -3.77140       -2.91220
H          4.50820       -2.28660       -3.45970
H          3.49510       -3.22670       -4.62380
