18
TSA8_9_OH_Br_CCl3
C          3.13500        1.19580       -0.58830
C          1.66230        1.01190       -0.87450
O          3.49460        0.42560        0.53000
H          3.69370        0.83760       -1.48080
Br         1.09840        0.28830       -2.55190
C          3.49760        2.69530       -0.36730
C          2.81590        3.23040        0.87980
C          1.91840        4.21990        0.83070
O          0.82110        1.30220       -0.03960
C          5.03160        2.95830       -0.29410
H          3.13100        3.25120       -1.26110
H          3.06200        2.79870        1.84570
H          1.64110        4.68170       -0.11200
H          1.45360        4.57470        1.74440
H          3.50380       -0.52310        0.23610
Cl         5.34610        4.71090       -0.13950
Cl         5.82090        2.14390        1.08940
Cl         5.84840        2.42660       -1.79190
