18
TSA8_9_OH_Br_CCl3
C          1.74720        0.07300       -0.12910
C          1.37010        0.96600       -1.06570
O          2.16350        0.43620        1.09970
H          1.70380       -0.98620       -0.36730
Br         0.76800        0.29030       -2.75060
C          4.20890        4.08600       -0.23880
C          3.45050        3.00360        0.00170
C          1.94760        3.08730        0.08680
O          1.36670        2.32270       -0.90920
C          5.71020        3.99810       -0.33830
H          3.73200        5.05370       -0.37140
H          3.92910        2.03780        0.13100
H          1.61780        4.13830       -0.05980
H          1.58300        2.77820        1.08730
H          2.41810       -0.23150        1.75140
Cl         6.39220        5.61100       -0.66800
Cl         6.40320        3.39520        1.19020
Cl         6.18040        2.90710       -1.66850
