18
TSA8_9_OH_Br_CCl3
C          3.19430        1.22860       -0.47440
C          1.68640        1.22390       -0.87750
O          3.33860        0.78990        0.85200
H          3.75820        0.53600       -1.13930
Br         1.52570        0.91940       -2.78830
C          3.71920        2.67480       -0.61600
C          2.90680        3.60550        0.31720
C          1.48500        3.06950        0.56020
O          0.98320        2.43610       -0.59390
C          5.25260        2.84570       -0.43700
H          3.48540        2.98320       -1.65970
H          3.36890        3.75080        1.31720
H          0.82430        3.91180        0.85180
H          1.46210        2.35490        1.41430
H          3.16000       -0.18630        0.84970
Cl         5.71530        4.54730       -0.71830
Cl         5.81890        2.38430        1.19470
Cl         6.13910        1.85790       -1.63110
