17
TSA8_9_Cl_Br_CH2F
C          1.92490        1.04300       -2.03290
C          0.69280        0.47960       -2.69040
Cl         1.62480        1.12920       -0.27000
H          2.77500        0.34590       -2.19940
Br         0.78430       -1.16820       -3.65600
C          2.29430        2.43750       -2.59730
C          3.52400        2.96940       -1.89380
C          3.50170        4.10560       -1.18990
O         -0.37450        1.06830       -2.61470
C          2.57760        2.37700       -4.10790
H          1.43420        3.12600       -2.43330
H          4.45420        2.41180       -1.96200
H          2.59310        4.69220       -1.09660
H          4.40340        4.45620       -0.69840
F          2.88760        3.63860       -4.58590
H          1.68630        2.01070       -4.65880
H          3.42760        1.69230       -4.31820
