18
TSA8_9_OMe_Cl_Br
C          1.45290        0.21210       -0.07200
C          1.03970       -0.80750        0.68780
O          1.62680        0.03550       -1.40170
H          1.62920        1.18610        0.37950
Cl         0.79230       -0.53750        2.41540
C         -0.96960       -4.70580       -0.86350
C         -0.93970       -3.48080       -0.32740
C          0.12120       -3.06750        0.65220
O          0.82100       -2.01310        0.10470
Br        -2.32440       -5.17550       -2.12740
H         -0.22550       -5.45050       -0.59820
H         -1.69410       -2.75360       -0.61460
H          0.82570       -3.90300        0.84960
H         -0.37310       -2.79320        1.60760
C          1.94570        1.07000       -2.24930
H          2.03120        0.67740       -3.28370
H          2.91320        1.52680       -1.95340
H          1.14270        1.83810       -2.22610
