24
TSA8_9_Et_OMe_I
C          2.97130        1.06930       -0.49590
C          1.93420        0.92770       -1.58930
C          2.45240        0.32270        0.76540
H          3.89010        0.55470       -0.85580
O          2.26200        0.26900       -2.73030
C          3.32880        2.57500       -0.32160
C          2.23630        3.36700        0.35400
C          1.59080        4.35910       -0.26720
O          0.81690        1.40840       -1.44640
I          5.19220        2.92010        0.69200
H          3.53320        2.98340       -1.33730
H          1.96630        3.12870        1.37800
H          1.82870        4.63110       -1.29090
H          0.81170        4.90720        0.25280
C          3.42330        0.27000        1.94050
H          2.24170       -0.72980        0.47200
H          1.49670        0.76910        1.11640
H          4.38900       -0.17980        1.62680
H          2.98650       -0.35430        2.74820
H          3.58590        1.27900        2.36400
C          1.41170        0.12710       -3.80590
H          1.92240       -0.45630       -4.59930
H          1.14340        1.12550       -4.21350
H          0.49050       -0.41330       -3.49940
