24
TSA8_9_Et_OMe_I
C          1.99090        0.05440       -0.17490
C          1.78640        0.69750       -1.35560
C          1.90900        0.54450        1.25000
H          2.23370       -1.00380       -0.25100
O          1.91010       -0.06830       -2.46930
C          3.68140        4.50190       -1.01350
C          3.07450        3.41180       -0.53120
C          1.61170        3.14870       -0.77030
O          1.46300        2.01730       -1.54270
I          5.74420        4.81130       -0.69630
H          3.13250        5.24180       -1.58880
H          3.65620        2.68930        0.02760
H          1.17040        3.99330       -1.34190
H          1.01950        3.10550        0.15770
C          3.22960        0.30600        1.97560
H          1.11730       -0.04030        1.76510
H          1.65180        1.59890        1.36140
H          3.49640       -0.77230        1.95340
H          3.13310        0.62270        3.03590
H          4.04600        0.89030        1.50310
C          1.80200        0.42820       -3.75170
H          1.95390       -0.39590       -4.47660
H          2.58130        1.20350       -3.92460
H          0.79540        0.86910       -3.90940
