20
TSA8_9_Me_CN_NO2
C          1.28600       -1.68940       -1.44570
C          1.46920       -2.13640        0.04890
C          2.35150       -0.69310       -1.92590
H          0.35180       -1.09950       -1.57370
C          1.58100       -1.07970        1.05380
C          1.08840       -3.06440       -2.15960
C         -0.33340       -3.51040       -1.74530
C         -0.62050       -3.15170       -0.26540
O          0.57850       -3.17260        0.48760
N          1.22830       -3.13690       -3.60490
H          1.81640       -3.80530       -1.74600
H         -1.09700       -2.96400       -2.35310
H         -1.37320       -3.85260        0.14650
H         -1.08130       -2.13850       -0.16910
H          2.13850       -0.38960       -2.97260
H          3.39320       -1.05040       -1.83020
H          2.23130        0.24740       -1.34130
N          1.67760       -0.27090        1.87430
O          1.97410       -2.39950       -4.17030
O          0.95770       -4.29130       -4.17980
