24
TSA8_9_NH2_OMe_OMe
C          2.87650        0.82260        0.82720
C          1.60830        1.62400        0.47390
N          2.72270       -0.57500        0.42250
H          3.71780        1.27310        0.25890
O          1.38050        1.55830       -0.91440
C          3.12400        0.93840        2.35530
C          3.05760        2.40970        2.81760
C          1.76130        3.02780        2.28220
O          1.76320        2.97450        0.87190
O          4.28850        0.23680        2.78510
H          2.26650        0.43990        2.86090
H          3.90180        2.99960        2.40230
H          1.71440        4.08960        2.59750
H          0.86120        2.52640        2.70970
H          1.93970       -1.01960        0.95560
H          3.60540       -1.09830        0.62490
C          0.07740        2.02280       -1.17760
H         -0.22850        1.66030       -2.18020
H          0.06820        3.13460       -1.20210
H         -0.67730        1.63390       -0.45470
C          5.49460        0.91970        2.50320
H          5.68230        1.71050        3.26010
H          5.53490        1.33270        1.47440
H          6.32920        0.19360        2.57160
