23
TSA8_9_CHF2_CCl3_CF3
C          2.97190       -1.69380       -1.17120
C          1.46910       -2.09920       -1.22960
C          3.21200       -0.32800       -0.49230
H          3.48250       -2.47130       -0.56470
C          0.69340       -2.34120        0.08090
C          3.56060       -1.71400       -2.62680
C          2.51710       -2.24010       -3.63080
C          1.22110       -1.41120       -3.46260
O          0.74790       -1.27610       -2.12280
C          4.85880       -2.54510       -2.71940
H          3.79030       -0.67560       -2.95260
H          2.29300       -3.30910       -3.42300
H          0.42410       -1.84910       -4.09800
H          1.43420       -0.38670       -3.83740
F          4.56210       -0.03000       -0.46940
F          2.54300        0.67960       -1.16630
H          2.86080       -0.34910        0.55660
Cl         1.61270       -3.38240        1.20120
Cl         0.25300       -0.82440        0.90920
Cl        -0.81790       -3.19600       -0.31540
F          4.61470       -3.86230       -2.37400
F          5.34920       -2.50390       -4.01210
F          5.81780       -2.02900       -1.86700
