17
TSA8_9_CHF2_Cl_Br
C          1.84770       -0.01410       -0.00750
C          1.14640       -0.93660       -0.69000
C          2.17540        1.37420       -0.50110
H          2.21110       -0.27250        0.98310
Cl         0.86410       -2.50350        0.07760
C         -0.09960       -1.48800       -5.14380
C         -0.44330       -0.91430       -3.98550
C         -0.11480       -1.54110       -2.66240
O          0.66650       -0.67130       -1.93170
Br        -0.53880       -0.65220       -6.80570
H          0.43190       -2.43450       -5.16350
H         -0.97590        0.03250       -3.99490
H          0.42640       -2.50310       -2.80350
H         -1.06330       -1.73830       -2.11780
F          3.54800        1.53250       -0.52760
F          1.67110        1.63670       -1.76200
H          1.74470        2.11190        0.20740
