17
TSA8_9_H_F_CBr3
C          2.09390        0.30180        0.17200
C          1.37590        0.92570        1.11740
H          2.68740       -0.58030        0.38270
H          2.08540        0.67680       -0.84620
F          0.64820        2.01570        0.76030
C          4.16260        0.12670        4.28630
C          3.53690       -0.02370        3.10740
C          2.09660       -0.46280        3.02020
O          1.32570        0.51570        2.41650
C          5.59870        0.57450        4.37140
H          3.62280       -0.07500        5.20740
H          4.07800        0.17900        2.18840
H          1.68910       -0.63840        4.03850
H          2.01400       -1.42000        2.46310
Br         6.15020        0.67760        6.22650
Br         6.76230       -0.68270        3.46060
Br         5.81020        2.33230        3.57760
