17
TSA8_9_Me_Br_Br
C          1.84700        0.03750        0.04120
C          1.15520        0.44160        1.11730
C          2.07880       -1.40780       -0.30030
H          2.26430        0.78380       -0.62810
Br         0.94310        2.33320        1.40560
C         -0.22090       -1.66120        5.04050
C         -0.55570       -1.40500        3.77150
C         -0.13280       -0.14350        3.07790
O          0.62040       -0.46930        1.97160
Br        -0.78320       -3.28370        5.88020
H          0.37380       -0.95780        5.61560
H         -1.15170       -2.12620        3.21990
H          0.46360        0.50360        3.75900
H         -1.04420        0.40880        2.76200
H          1.61690       -2.10020        0.43410
H          3.17040       -1.60430       -0.33080
H          1.64650       -1.61830       -1.30040
