17
TSA8_9_Me_Br_Br
C          1.73100       -0.67260        1.68150
C          0.99900        0.63290        1.31890
C          1.43290       -1.73290        0.60630
H          2.82900       -0.49860        1.66700
Br         1.67800        2.21740        2.23570
C          1.29960       -1.09340        3.10400
C         -0.22520       -1.16030        3.19530
C         -0.81040        0.18120        2.73390
O         -0.41370        0.50260        1.40810
Br         2.09890       -2.76940        3.67820
H          1.64570       -0.31840        3.82230
H         -0.62310       -1.98250        2.56470
H         -0.53850        0.99460        3.44090
H         -1.91700        0.10350        2.76200
H          0.34890       -1.95160        0.52300
H          1.97340       -2.67690        0.82370
H          1.78240       -1.36660       -0.38270
