18
TSA8_9_Cl_NO2_NH2
C          1.32100       -0.22590       -0.34590
C          1.51300        1.10170       -0.41230
Cl         1.23070       -1.06270        1.20110
H          1.22440       -0.82610       -1.24480
N          1.58430        1.75980       -1.68530
C          4.53760        2.66300        2.20500
C          3.19790        2.66330        2.22680
C          2.37660        2.91540        0.99700
O          1.61410        1.78930        0.75990
N          5.28040        2.40040        3.38260
H          5.07180        2.85430        1.27860
H          2.67420        2.46060        3.15700
H          3.04050        3.14870        0.13690
H          1.71040        3.78300        1.18430
O          1.60870        2.95080       -1.75420
O          1.51620        1.06290       -2.80050
H          4.80850        2.20810        4.27890
H          6.30930        2.38800        3.34600
