20
TSA8_9_H_Me_CHF2
C          2.18060        1.34830        1.52970
C          1.05790        2.30460        1.21900
H          1.81770        0.31960        1.31440
H          3.04860        1.55100        0.86350
C          1.22760        3.36140        0.17000
C          2.62830        1.42930        3.00420
C          3.68430        0.37740        3.25840
C          3.50200       -0.61090        4.13970
O         -0.00240        2.21190        1.81900
C          3.18380        2.81930        3.36470
H          1.74240        1.23330        3.65030
H          4.61980        0.42240        2.70740
H          2.58220       -0.69450        4.71030
H          4.28210       -1.34910        4.29460
H          2.06750        4.03170        0.44790
H          0.30190        3.96810        0.07120
H          1.44780        2.88360       -0.80740
F          3.54890        2.85110        4.69930
F          4.28780        3.12590        2.58690
H          2.40830        3.59690        3.20270
