20
TSA8_9_H_Me_CHF2
C          1.84630        0.12820        0.00240
C          1.51380        1.24290        0.68260
H          2.25540       -0.75470        0.47250
H          1.69980        0.07330       -1.07210
C          0.93130        2.41720       -0.05160
C          3.02090        2.45940        4.36980
C          3.36950        1.38430        3.64830
C          2.33870        0.56610        2.92820
O          1.66650        1.38000        2.03090
C          4.04690        3.28940        5.08060
H          1.97550        2.74700        4.44410
H          4.41450        1.09510        3.57400
H          1.61380        0.15850        3.66430
H          2.85400       -0.28160        2.44190
H          1.58780        3.30030        0.09470
H         -0.07380        2.64670        0.35850
H          0.83280        2.22890       -1.14240
F          4.72770        2.51500        6.00180
F          4.94220        3.81510        4.16670
H          3.54400        4.12430        5.61180
