20
TSA8_9_F_CBr3_CBr3
C          1.84450        0.15700       -0.06040
C          1.67890        1.49960        0.02960
F          2.22210       -0.60960        0.99490
H          1.68070       -0.37290       -0.98800
C          1.25520        2.33990       -1.16460
C          1.71820        2.90800        4.51980
C          2.42180        2.84140        3.37790
C          2.27880        1.69740        2.41770
O          1.88210        2.19070        1.19160
C          1.87220        4.05890        5.47970
H          1.01960        2.11220        4.76390
H          3.12460        3.63170        3.12830
H          1.53180        0.96060        2.78640
H          3.27120        1.20730        2.32260
Br         0.96520        1.38920       -2.84310
Br        -0.39830        3.25210       -0.73230
Br         2.61700        3.67860       -1.49540
Br         0.71150        3.80370        7.01080
Br         3.70070        4.17440        6.11890
Br         1.38790        5.73050        4.62250
