20
TSA8_9_F_CBr3_CBr3
C          1.07980        1.92700        2.11230
C          1.88640        2.60790        0.98130
F          1.05090        0.56300        1.86420
H          0.02600        2.26320        2.15930
C          1.16860        2.65540       -0.38210
C          1.79230        2.18000        3.47180
C          3.31250        2.38580        3.25920
C          3.79120        1.59390        2.03930
O          3.17610        2.01070        0.81940
C          1.18300        3.35350        4.28990
H          1.64280        1.26630        4.08810
H          3.54230        3.44830        3.02990
H          3.61590        0.50850        2.19720
H          4.88620        1.75080        1.94490
Br         0.85730        0.88670       -1.12360
Br        -0.52480        3.59690       -0.25820
Br         2.26830        3.64010       -1.63920
Br        -0.66640        2.98110        4.76060
Br         2.13460        3.58030        5.97190
Br         1.22380        5.05020        3.33590
