19
TSA8_9_CHF2_I_NO2
C          1.62330       -1.28360        1.83650
C          1.31290        0.16550        1.52410
C          1.47220       -2.11840        0.54380
H          2.69210       -1.33010        2.14020
I          2.80780        1.64130        1.73780
C          0.77360       -1.75190        3.06410
C         -0.71700       -1.75080        2.78870
C         -1.56200       -0.96400        3.46280
O          0.20490        0.50110        1.13470
N          1.17370       -3.06010        3.55740
H          0.99320       -1.01660        3.87380
H         -1.11700       -2.41160        2.02560
H         -1.20810       -0.28960        4.23680
H         -2.62350       -0.99230        3.24050
F          2.23700       -1.55510       -0.46380
F          1.91450       -3.41390        0.71920
H          0.41520       -2.13480        0.20500
O          0.94460       -4.05140        2.93250
O          1.69320       -3.16910        4.76170
