19
TSA8_9_CHF2_I_NO2
C          1.63710       -1.45660        1.93320
C          1.20490        0.01270        1.74500
C          1.47100       -2.19210        0.58410
H          2.72160       -1.47980        2.17700
I          1.97760        1.40000        3.20440
C          0.82300       -2.03160        3.12970
C         -0.67790       -1.80700        2.90600
C         -0.92730       -0.31810        2.63660
O         -0.19060        0.14340        1.51490
N          1.10130       -3.42840        3.41890
H          1.11180       -1.43700        4.02610
H         -1.04340       -2.40700        2.04590
H         -0.70460        0.28920        3.54010
H         -2.00880       -0.17970        2.43030
F          2.16250       -1.50760       -0.40090
F          1.99760       -3.46780        0.64410
H          0.40650       -2.24640        0.27800
O          0.75170       -4.29210        2.67260
O          1.63970       -3.75810        4.57340
