24
TSA8_9_CBr3_CF3_OMe
C          1.51400        0.83870       -0.24500
C          1.87460        0.32840       -1.46820
C          2.18090        1.06210        1.11350
H          0.48960        1.17410       -0.17270
C          3.20320       -0.25930       -1.90320
C          0.01230        3.12870       -4.10760
C          0.28020        2.51360       -2.93930
C         -0.15730        1.09610       -2.67870
O          0.96090        0.30110       -2.48760
O          0.42430        4.39190       -4.40400
H         -0.55230        2.59910       -4.86830
H          0.84100        3.02100       -2.16130
H         -0.71110        0.69790       -3.55600
H         -0.85580        1.04180       -1.82030
Br         1.18320        0.02170        2.40690
Br         4.05130        0.71630        1.48900
Br         1.92550        2.93020        1.55790
F          2.98270       -1.54840       -2.35150
F          3.68220        0.49330       -2.95990
F          4.17750       -0.31710       -0.95500
C          1.22810        5.18770       -3.61380
H          1.40270        6.15270       -4.13180
H          2.20930        4.69300       -3.44890
H          0.73370        5.39000       -2.64030
