19
TSA8_9_CF3_Cl_NO2
C          1.90050        0.00380        0.06650
C          1.21110        0.21160        1.20240
C          2.15240       -1.34180       -0.56990
H          2.30940        0.86670       -0.45150
Cl         1.01820        1.87700        1.76330
C         -0.24260       -2.41130        4.78190
C         -0.52250       -2.02990        3.52270
C         -0.13450       -0.67550        3.00360
O          0.67480       -0.82500        1.89740
N         -0.60880       -3.68920        5.29000
H          0.27830       -1.72350        5.44430
H         -1.04720       -2.70250        2.84980
H          0.39930       -0.09000        3.78480
H         -1.05830       -0.12970        2.71420
F          3.51570       -1.54470       -0.66530
F          1.59770       -2.38840        0.14410
F          1.61060       -1.34000       -1.84140
O         -1.17950       -4.48450        4.60560
O         -0.31760       -3.99840        6.53410
