19
TSA8_9_CF3_Cl_NO2
C          1.55650       -1.36580        1.92380
C          1.20980        0.12300        1.70410
C          1.41960       -2.11810        0.57550
H          2.63150       -1.44130        2.19980
Cl         1.89060        1.22940        2.94220
C          0.69820       -1.88010        3.11970
C         -0.78620       -1.55740        2.90600
C         -0.93630       -0.05990        2.61540
O         -0.17820        0.33310        1.48080
N          0.88480       -3.28950        3.41790
H          1.02440       -1.29800        4.01180
H         -1.21080       -2.14820        2.06940
H         -0.66480        0.54410        3.50850
H         -2.00760        0.14990        2.41630
F          2.21250       -1.49260       -0.37160
F          1.87020       -3.41910        0.68830
F          0.11840       -2.12480        0.11000
O          0.48060       -4.13270        2.67550
O          1.40080       -3.64680        4.57430
