19
TSA8_9_CF3_NH2_Br
C          1.58760       -1.44420        0.93410
C          0.84780       -0.16590        1.29500
C          1.47130       -1.70570       -0.58900
H          2.66880       -1.29090        1.14860
N          1.51650        0.89900        1.79750
C          1.12640       -2.61240        1.85560
C         -0.32370       -2.99860        1.68170
C         -1.21060       -2.87460        2.67440
O         -0.36130       -0.09070        1.13060
Br         2.21950       -4.20450        1.63030
H          1.30240       -2.28380        2.90470
H         -0.66190       -3.39750        0.73160
H         -0.91910       -2.48430        3.64480
H         -2.24420       -3.16500        2.51770
F          2.20080       -2.81930       -0.95890
F          0.15560       -1.88380       -0.97640
F          1.98070       -0.61810       -1.27760
H          1.01140        1.76420        2.04060
H          2.53500        0.86530        1.94700
