19
TSA8_9_CF3_NH2_Br
C          1.91530       -0.09880        0.03450
C          1.24840       -0.45590        1.15140
C          2.12920       -0.97390       -1.17700
H          2.33680        0.90170       -0.02060
N          1.12020        0.48870        2.21160
C         -0.12800       -4.56150        2.89880
C         -0.45410       -3.57700        2.05440
C         -0.05790       -2.15190        2.30850
O          0.70810       -1.70070        1.25460
Br        -0.65340       -6.36310        2.53620
H          0.43740       -4.35870        3.80360
H         -1.02260       -3.80750        1.15810
H          0.51910       -2.06950        3.25610
H         -0.98020       -1.53680        2.38850
F          3.48700       -1.11890       -1.39060
F          1.56690       -2.23110       -1.04470
F          1.56800       -0.35500       -2.27750
H          0.61800        0.26030        3.07970
H          1.53200        1.43040        2.13130
