19
TSA8_9_I_NH2_CBr3
C          1.91850       -0.09650        0.09260
C          1.45570       -0.55430        1.27810
I          2.52130       -1.24210       -1.59340
H          1.95750        0.97560       -0.07510
N          1.01760        0.38320        2.24820
C          2.37530       -4.90770        2.73130
C          2.59990       -3.59390        2.56870
C          2.25430       -2.87760        1.29660
O          1.35010       -1.87620        1.58990
C          2.71800       -5.61760        4.01500
H          1.93390       -5.47850        1.91880
H          3.04390       -3.01620        3.37510
H          1.80090       -3.57230        0.55690
H          3.19920       -2.46540        0.88700
H          0.65150        0.05310        3.15270
H          1.05740        1.39820        2.07140
Br         2.26660       -7.49710        3.87230
Br         4.61620       -5.47620        4.39090
Br         1.71520       -4.86380        5.49500
