19
TSA8_9_I_NH2_CBr3
C          2.05860       -1.79260        2.68400
C          1.08160       -1.44800        1.53790
I          3.87540       -0.63410        2.45860
H          1.59600       -1.49760        3.64840
N          0.64450       -0.05400        1.54260
C          2.22300       -3.34130        2.64650
C          2.67290       -3.77090        1.23760
C          1.70050       -3.19260        0.19540
O          1.64930       -1.78230        0.28850
C          3.07730       -3.99880        3.76950
H          1.19710       -3.75170        2.79530
H          3.69960       -3.40220        1.02840
H          0.68360       -3.63530        0.30690
H          2.06050       -3.47120       -0.81680
H          0.20500        0.16500        2.46540
H          1.45250        0.58800        1.38300
Br         2.87700       -5.92980        3.67080
Br         4.98900       -3.65530        3.68630
Br         2.44150       -3.47010        5.52710
