20
TSA8_9_OH_CHF2_NO2
C          1.86470       -0.21300        0.12340
C          1.42210       -1.42610        0.53090
O          2.20590        0.04530       -1.15400
H          1.94230        0.59890        0.84220
C          1.04330       -1.62460        1.97270
C          3.90590       -3.75120       -0.69900
C          3.31640       -2.82090       -1.47020
C          1.81640       -2.72810       -1.54600
O          1.28460       -2.51290       -0.28710
N          5.32070       -3.87460       -0.59190
H          3.28270       -4.43820       -0.13120
H          3.91310       -2.12180       -2.04930
H          1.42810       -3.69370       -1.93230
H          1.48920       -1.94180       -2.25670
H          2.50260        0.92750       -1.41700
F         -0.27930       -2.01710        2.05280
F          1.84190       -2.61310        2.51760
H          1.17410       -0.69890        2.57320
O          6.04920       -3.14320       -1.19260
O          5.83210       -4.80520        0.18200
