17
TSA8_9_OH_NO2_I
C          2.78860        0.81400       -0.56140
C          1.51120        0.80260       -1.38590
O          2.50100        0.29670        0.71500
H          3.52520        0.15620       -1.07570
N          1.43120        0.13810       -2.57580
C          3.48050        2.19780       -0.43830
C          2.73890        3.23320        0.38010
C          1.64540        3.86800       -0.04990
O          0.52060        1.37250       -0.95160
I          5.40680        1.90150        0.47520
H          3.70050        2.61000       -1.44710
H          3.13450        3.51540        1.35150
H          1.22310        3.67640       -1.02840
H          1.17470        4.61590        0.58030
H          3.26030       -0.28280        0.98440
O          0.40630        0.13320       -3.19010
O          2.47050       -0.50210       -3.06790
