21
TSA8_9_F_CHF2_OMe
C          3.20660        1.58060       -0.01870
C          1.75050        1.41330       -0.38500
F          3.71480        0.33880        0.32620
H          3.75250        1.95200       -0.91280
C          1.27720        1.75720       -1.76960
C          3.40470        2.61470        1.12580
C          2.79390        2.16230        2.43890
C          1.79040        2.82630        3.02180
O          0.95690        0.98380        0.43950
O          4.75640        3.02880        1.30790
H          2.87550        3.53240        0.78330
H          3.17350        1.27120        2.92840
H          1.37200        3.72270        2.57410
H          1.37930        2.47050        3.96030
F         -0.08020        1.51880       -1.89790
F          1.52710        3.09210       -2.02890
H          1.82170        1.13400       -2.50970
C          5.66860        1.96180        1.46790
H          6.61070        2.37500        1.88250
H          5.91920        1.51000        0.48510
H          5.32120        1.19990        2.19590
