21
TSA8_9_F_CHF2_OMe
C          1.87530        0.12860       -0.12670
C          1.50020        1.38100       -0.47070
F          2.19670       -0.22780        1.14300
H          1.91690       -0.65280       -0.87980
C          1.13840        1.67700       -1.90040
C          4.11980        3.52120        2.18380
C          3.39930        2.48560        1.71210
C          1.89100        2.50530        1.70630
O          1.41590        2.42280        0.41010
O          5.48130        3.54520        2.19230
H          3.60360        4.39120        2.57770
H          3.89950        1.61010        1.31540
H          1.52140        3.45800        2.14230
H          1.47650        1.68800        2.33120
F         -0.16490        2.13300       -1.95960
F          1.98290        2.65480       -2.39070
H          1.22690        0.77880       -2.54950
C          6.31150        2.55240        1.71240
H          7.36710        2.86320        1.85180
H          6.13020        2.39250        0.62780
H          6.14310        1.60690        2.27060
