21
TSA8_9_F_CHF2_OMe
C          3.25650        1.45660        0.10790
C          1.70980        1.47590       -0.11800
F          3.55430        0.38070        0.92830
H          3.79300        1.30340       -0.85340
C          1.34290        1.90380       -1.54240
C          3.67380        2.78350        0.78410
C          2.91800        2.98800        2.11250
C          1.56930        2.24800        2.09210
O          0.99410        2.30400        0.80420
O          5.06950        3.03370        0.90120
H          3.29710        3.57340        0.10190
H          3.47040        2.64090        3.01020
H          0.88690        2.70740        2.83630
H          1.69060        1.18460        2.40340
F         -0.02450        1.79920       -1.71710
F          1.73020        3.20940       -1.78380
H          1.84030        1.23470       -2.27570
C          5.79080        1.94820        1.44330
H          6.78940        2.31810        1.75370
H          5.95750        1.16610        0.67220
H          5.31950        1.52920        2.35690
