21
TSA8_9_CH2F_OMe_Br
C          3.05500       -0.90970        0.59340
C          2.08930       -0.84750        1.75620
C          2.29330       -0.62220       -0.71620
H          3.77990       -0.08260        0.76060
O          2.29960        0.07540        2.73050
C          3.90000       -2.22220        0.55030
C          3.16810       -3.47300        0.11130
C          2.26730       -4.11060        0.86350
O          1.10760       -1.57520        1.79540
Br         5.42890       -1.97780       -0.63790
H          4.36330       -2.40040        1.54560
H          3.41240       -3.90890       -0.85380
H          2.00660       -3.77080        1.85630
H          1.79630       -5.01370        0.48770
F          3.15200       -0.51830       -1.79360
H          1.74530        0.34010       -0.62540
H          1.55290       -1.42470       -0.92170
C          1.48360        0.23820        3.82960
H          1.88000        1.06300        4.45730
H          1.46550       -0.69410        4.43310
H          0.45290        0.49870        3.50670
