21
TSA8_9_CH2F_OMe_Br
C          1.84800       -0.00860       -0.08570
C          1.81950       -0.46360        1.19070
C          1.63170       -0.75860       -1.36890
H          2.02560        1.05540       -0.22040
O          1.97360        0.47090        2.16200
C          4.48750       -3.59900        1.92570
C          3.74150       -2.79510        1.16150
C          2.24460       -2.91900        1.09780
O          1.64760       -1.76550        1.58000
Br         6.38710       -3.39420        1.97310
H          4.03220       -4.37600        2.53220
H          4.22470       -2.02510        0.56710
H          1.89520       -3.76340        1.73060
H          1.93900       -3.17500        0.07710
F          2.78590       -0.70940       -2.12790
H          0.81630       -0.25780       -1.92900
H          1.30980       -1.79710       -1.25620
C          2.08850        0.16810        3.50150
H          2.18100        1.10880        4.08170
H          2.99840       -0.44710        3.67210
H          1.19100       -0.38460        3.85340
