26
TSA8_9_Et_CHF2_CHF2
C          1.81590       -0.12390       -0.13170
C          1.39390       -0.34100       -1.41260
C          1.88210        1.14500        0.68620
H          2.15150       -0.99290        0.42970
C          1.42440       -1.75550       -1.93450
C          2.58400        3.33810       -3.43090
C          2.22110        2.55990       -2.40030
C          0.84210        1.95500       -2.30520
O          0.91010        0.57770       -2.30620
C          3.95990        3.92990       -3.51020
H          1.88060        3.55450       -4.23040
H          2.94290        2.36070       -1.61870
H          0.24840        2.25600       -3.19500
H          0.26360        2.32110       -1.43690
C          3.30780        1.37950        1.17900
H          1.22170        1.01860        1.57020
H          1.55000        2.04900        0.17060
H          3.65350        0.51690        1.78830
H          3.33870        2.29180        1.81150
H          4.00130        1.51510        0.32290
F          0.14280       -2.14150       -2.28130
F          2.23200       -1.81140       -3.05500
H          1.81460       -2.48220       -1.18950
F          4.18870        4.74180       -2.41420
F          4.90630        2.92190       -3.54300
H          4.05030        4.53870       -4.43420
