21
TSA8_9_Et_CN_Br
C          1.60550       -0.01050        0.11880
C          1.44940       -0.84910        1.15970
C          1.74880       -0.45500       -1.31460
H          1.63580        1.06230        0.30120
C          1.30440       -0.30310        2.48490
C         -0.21710       -4.91280       -0.65790
C          0.72190       -4.13910       -0.10880
C          0.33170       -2.89630        0.62770
O          1.45450       -2.19550        0.99550
Br         0.26500       -6.47390       -1.64610
H         -1.26800       -4.64840       -0.57130
H          1.77100       -4.39960       -0.22060
H         -0.26970       -3.14380        1.52920
H         -0.28540       -2.29160       -0.06390
C          3.18030       -0.22640       -1.76060
H          1.04060        0.12950       -1.94490
H          1.51410       -1.53020       -1.45650
H          3.46240        0.83850       -1.62610
H          3.29660       -0.50870       -2.82690
H          3.85030       -0.86610       -1.14520
N          1.18980        0.13430        3.54980
