17
TSA8_9_NH2_H_OH
C          1.68090       -0.13490        2.16620
C          1.34000        0.88860        1.10750
N          1.44040       -1.49010        1.66320
H          2.77230       -0.03310        2.36020
H          2.11200        1.55830        0.74420
C          0.98970        0.07010        3.54260
C         -0.52370       -0.00940        3.52830
C         -1.29720        0.95760        3.02560
O          0.23120        0.93390        0.59970
O          1.48100       -0.92120        4.40980
H          1.29020        1.06860        3.93990
H         -1.00900       -0.86320        3.99300
H         -0.87030        1.85770        2.59730
H         -2.37720        0.86310        3.06420
H          2.00540       -1.64860        0.79660
H          0.42850       -1.61920        1.43220
H          1.31850       -0.60380        5.33700
