18
TSA8_9_H_CN_CF3
C          0.71000       -2.13080        0.85740
C          2.14500       -2.17140        1.37480
H          0.53960       -2.58080       -0.14500
H          0.64960       -1.05690        0.58590
C          3.27060       -1.94000        0.49740
C         -0.37880       -2.43400        1.95550
C         -1.12600       -1.14900        2.17950
C         -0.75370       -0.29830        3.12930
O          2.37160       -2.09060        2.57600
C         -1.38700       -3.60560        1.76250
H          0.17250       -2.71640        2.87690
H         -1.89800       -0.85340        1.47270
H          0.06970       -0.54330        3.79180
H         -1.24660        0.66180        3.20580
N          4.16390       -1.75450       -0.19890
F         -0.78490       -4.71390        1.19710
F         -1.87960       -3.97250        3.00870
F         -2.46860       -3.23880        0.97660
