18
TSA8_9_H_CN_CF3
C          1.53900       -0.01650        0.02000
C          1.93670       -1.06500        0.73670
H          1.86360        0.16040       -1.00970
H          1.05680        0.78610        0.56520
C          3.25940       -1.48800        0.37660
C         -1.38060       -3.19670        2.93820
C         -0.84370       -2.33790        2.04420
C          0.16020       -1.27420        2.48060
O          1.43510       -1.45420        1.95130
C         -2.40820       -4.23320        2.56290
H         -1.07170       -3.15290        3.97890
H         -1.15730       -2.39880        1.00430
H          0.25600       -1.30930        3.58280
H         -0.20880       -0.26570        2.27190
N          4.32470       -1.80440        0.05840
F         -1.90700       -5.07560        1.58830
F         -2.73750       -4.98600        3.67770
F         -3.55290       -3.61560        2.09200
