17
TSA8_9_Cl_CCl3_H
C          1.93550       -0.64070       -1.91360
C          0.76050       -1.59030       -1.84820
Cl         1.43080        0.91480       -1.19170
H          2.77150       -1.04830       -1.30530
C          0.84320       -2.87350       -1.04990
C          2.41940       -0.49880       -3.37270
C          3.70820        0.27430       -3.52110
C          3.81870        1.58490       -3.28350
O         -0.26620       -1.30910       -2.45080
H          2.62420       -1.52450       -3.75110
H          1.63000       -0.04990       -4.01400
H          4.58940       -0.26130       -3.86300
H          2.97350        2.18360       -2.96890
H          4.77560        2.07780       -3.42170
Cl         2.16120       -3.89700       -1.67660
Cl         1.16040       -2.50360        0.66450
Cl        -0.67530       -3.81170       -1.14090
