17
TSA8_9_Cl_CCl3_H
C          2.92530       -1.00790       -1.84100
C          1.38140       -0.74670       -1.84750
Cl         3.73170        0.23330       -0.83950
H          3.17430       -1.98840       -1.38330
C          0.53520       -1.97550       -1.46550
C          3.46040       -0.96640       -3.27630
C          3.08830        0.35490       -3.96620
C          1.73350        0.87690       -3.46190
O          0.91190       -0.20520       -3.08290
H          4.55530       -1.14430       -3.33080
H          2.96070       -1.78600       -3.83560
H          3.84370        1.15490       -3.80980
H          1.24600        1.47660       -4.25760
H          1.87080        1.57090       -2.59920
Cl         0.74560       -3.30320       -2.63950
Cl         0.96590       -2.56040        0.16450
Cl        -1.18850       -1.52300       -1.42940
