24
TSA8_9_CN_Et_CHF2
C          2.91050        0.02200       -1.57230
C          1.62990       -0.81080       -1.52650
C          2.74610        1.00480       -0.45520
H          3.77160       -0.63260       -1.34260
C          1.64500       -2.28570       -1.19730
C          3.07500        0.69620       -2.99240
C          2.37110        2.02860       -2.98610
C          1.10330        2.16980       -3.34160
O          0.54400       -0.27720       -1.71710
C          4.48950        0.90780       -3.60060
H          2.60860       -0.01810       -3.71090
H          2.89720        2.88420       -2.56300
H          0.53610        1.32200       -3.70300
H          0.63200        3.13680       -3.21800
N          2.54790        1.79040        0.36630
C          0.93010       -3.12090       -2.26050
H          1.11590       -2.44190       -0.23220
H          2.68960       -2.63950       -1.08480
H         -0.14950       -2.85460       -2.30190
H          1.00340       -4.19860       -1.99850
H          1.38240       -2.96190       -3.26100
F          5.21410        1.89460       -2.95540
F          5.22420       -0.26420       -3.62150
H          4.35870        1.23100       -4.66290
