24
TSA8_9_CN_Et_CHF2
C          1.74460       -0.04160       -0.05430
C          1.57020       -0.75060       -1.19900
C          1.86980        1.38790        0.07720
H          1.80230       -0.58490        0.88330
C          1.60090       -2.26210       -1.08080
C          3.53310        1.17920       -4.44750
C          3.02130        1.25790       -3.20740
C          1.55870        1.04760       -2.94970
O          1.37840       -0.22490       -2.44820
C          5.00350        1.32940       -4.70720
H          2.88300        0.97200       -5.29490
H          3.66950        1.44710       -2.35970
H          0.99780        1.10330       -3.91020
H          1.10940        1.83370       -2.31100
N          1.97470        2.53040        0.22880
C          0.81660       -2.95930       -2.18200
H          1.20100       -2.58360       -0.09650
H          2.66180       -2.60300       -1.13230
H         -0.23130       -2.59800       -2.17030
H          0.82620       -4.05510       -2.00270
H          1.27300       -2.75870       -3.17480
F          5.51120        2.41340       -4.01470
F          5.66960        0.18030       -4.32040
H          5.17130        1.47980       -5.79390
