18
TSA8_9_OH_F_Me
C          1.04710       -1.93190       -1.04110
C          1.26340       -1.27300        0.29830
O          0.49770       -1.00320       -1.94170
H          2.03970       -2.27940       -1.41530
F          2.51630       -1.19970        0.81860
C          0.14060       -3.18360       -0.93900
C         -1.25380       -2.82950       -0.46790
C         -1.76760       -3.32850        0.66070
O          0.32900       -0.78640        0.91540
C          0.04310       -3.89330       -2.29510
H          0.61720       -3.89440       -0.22570
H         -1.85760       -2.15090       -1.06400
H         -1.19840       -4.00990        1.28500
H         -2.77140       -3.05270        0.96720
H          1.25270       -0.46840       -2.30210
H         -0.42100       -3.23210       -3.05820
H         -0.57390       -4.81280       -2.20030
H          1.05410       -4.19000       -2.64720
