21
TSA8_9_CN_CCl3_CF3
C          1.63850        0.06070       -0.02700
C          1.51010        1.37880       -0.36500
C          1.79820       -0.49870        1.28960
H          1.58810       -0.68120       -0.82400
C          1.56510        1.75480       -1.82600
C          3.32660        4.08270        1.76620
C          2.77190        2.93010        2.19690
C          1.36670        2.52790        1.85830
O          1.25310        2.41870        0.49320
C          4.71560        4.52840        2.17460
H          2.76270        4.74830        1.11660
H          3.33950        2.26360        2.82580
H          0.67710        3.31970        2.24980
H          1.08210        1.59030        2.35690
N          1.92840       -0.98630        2.32850
Cl         2.53790        0.62380       -2.82890
Cl        -0.08970        1.78550       -2.40360
Cl         2.29250        3.37650       -2.06960
F          5.52750        4.60870        1.06020
F          4.63750        5.78190        2.75790
F          5.29400        3.66170        3.08750
