21
TSA8_9_CN_CCl3_CF3
C          2.91190        1.52480        0.61690
C          1.48580        1.62540       -0.03060
C          2.79600        0.36190        1.51700
H          3.67550        1.25760       -0.14290
C          1.50040        1.89420       -1.55870
C          3.15520        2.91640        1.29680
C          2.17440        3.04630        2.45050
C          0.78080        2.57220        2.02980
O          0.62580        2.57950        0.61720
C          4.52210        3.49810        1.71120
H          2.85880        3.65940        0.53500
H          2.51790        2.46730        3.34210
H          0.07210        3.28680        2.49150
H          0.54770        1.56600        2.44190
N          2.67410       -0.53180        2.24170
Cl         2.35700        0.59350       -2.43020
Cl        -0.17290        1.91990       -2.16990
Cl         2.25770        3.45230       -1.99150
F          5.35520        3.62840        0.61420
F          4.29260        4.78030        2.20340
F          5.15150        2.76380        2.69380
