22
TSA8_9_Et_OH_CN
C          1.58680       -0.01070       -0.03840
C          1.40730       -0.62810       -1.35620
C          1.62790        1.41300        0.45080
H          1.48350       -0.72020        0.77410
O          1.41430       -2.00240       -1.35610
C          2.23230        2.81640       -4.08700
C          2.11550        2.04800       -2.99330
C          0.81590        1.31460       -2.68380
O          1.01150       -0.06220       -2.59860
C          3.52850        3.26230       -4.53800
H          1.37380        3.04210       -4.71080
H          2.99450        1.89320       -2.38160
H          0.10810        1.49310       -3.50380
H          0.25410        1.67860       -1.81180
C          3.08940        1.55730        0.85900
H          1.03820        1.61980        1.36840
H          1.41280        2.23250       -0.24780
H          3.37250        0.78420        1.60870
H          3.24230        2.55610        1.30730
H          3.77750        1.53450       -0.00380
H          1.66960       -2.34750       -2.23760
N          4.55470        3.63240       -4.92510
