23
TSA8_9_Me_Et_Br
C          1.67870       -0.15620        0.08210
C          1.37200       -1.46770        0.26320
C          1.95740        0.53460       -1.22510
H          1.70010        0.49650        0.95050
C          1.02220       -1.95520        1.64980
C          3.67760       -4.39880       -2.60190
C          2.76980       -3.97770       -1.71690
C          2.26300       -2.56640       -1.74440
O          1.33190       -2.39450       -0.73650
Br         4.31660       -6.19960       -2.55020
H          4.06640       -3.72610       -3.36080
H          2.39650       -4.66890       -0.96660
H          1.77790       -2.37700       -2.72560
H          3.13420       -1.88800       -1.61110
H          1.83120       -0.10390       -2.11490
H          2.98680        0.94860       -1.21100
H          1.23920        1.37300       -1.33840
C          1.99200       -3.04160        2.10430
H         -0.00930       -2.36780        1.63550
H          1.04960       -1.12960        2.39450
H          1.95580       -3.91070        1.41420
H          1.71170       -3.38880        3.12100
H          3.02830       -2.64230        2.13540
