23
TSA8_9_Me_Et_Br
C          2.79210       -1.15490       -0.44260
C          1.36410       -1.55820        0.00470
C          2.66610        0.08410       -1.34710
H          3.39150       -0.79510        0.42200
C          1.16700       -2.11770        1.42540
C          3.53410       -2.30420       -1.17580
C          2.58420       -3.40520       -1.65360
C          1.22940       -2.81620       -2.04800
O          0.53360       -2.18830       -0.97220
Br         4.94300       -3.08930       -0.08890
H          4.06940       -1.88640       -2.05600
H          2.39950       -4.14710       -0.85560
H          0.60250       -3.65640       -2.41220
H          1.34330       -2.11200       -2.89670
H          2.08220       -0.11680       -2.26570
H          3.67500        0.44190       -1.64580
H          2.16630        0.90730       -0.79230
C          1.59000       -3.56560        1.62780
H          0.08520       -2.04380        1.66710
H          1.71540       -1.47200        2.14430
H          1.01050       -4.23530        0.95920
H          1.38180       -3.86270        2.67730
H          2.67390       -3.68670        1.45220
