24
TSA8_9_Me_Me_OMe
C          1.79890        0.12200        0.02850
C          1.44850        1.31990        0.54460
C          1.90650       -1.14570        0.82960
H          2.00190        0.03880       -1.03550
C          1.30850        2.51910       -0.35200
C          4.29950        2.80920        2.48400
C          2.97510        2.82920        2.67000
C          2.17350        1.56660        2.83850
O          1.18990        1.47910        1.86860
O          4.97430        3.97540        2.34640
H          4.82960        1.86020        2.44750
H          2.45500        3.78240        2.70660
H          1.68350        1.60470        3.83330
H          2.82650        0.66890        2.81520
H          1.63280       -1.01270        1.89430
H          2.94460       -1.53290        0.76660
H          1.21500       -1.90020        0.40060
H          2.00960        3.31350       -0.02360
H          0.26980        2.90510       -0.28650
H          1.52630        2.27720       -1.41440
C          6.33960        4.04910        2.16560
H          6.55350        4.56750        1.20830
H          6.78590        4.63320        2.99690
H          6.81530        3.04390        2.14150
