16
TSA8_9_CN_OH_F
C          1.60920        0.00160        0.05940
C          1.63770       -0.27350        1.37940
C          1.76310       -0.95160       -1.00880
H          1.45660        1.03200       -0.24410
O          1.55300        0.78120        2.20940
C          1.31990       -4.89140        0.64850
C          1.86130       -3.76640        1.12590
C          0.99780       -2.60680        1.50430
O          1.75900       -1.52440        1.91240
F          2.12300       -5.92730        0.29740
H          0.24240       -4.98890        0.52240
H          2.93820       -3.69310        1.23590
H          0.33080       -2.90500        2.34100
H          0.34410       -2.33330        0.65300
N          1.88300       -1.68600       -1.89550
H          2.06040        0.79640        3.02740
