19
TSA8_9_CH2F_NO2_Cl
C          1.91690        0.04900       -0.09930
C          1.55480        0.54100       -1.32420
C          1.89240        0.68000        1.26820
H          2.27650       -0.97400       -0.05690
N          1.66030       -0.32430       -2.46010
C          2.85920        4.64440       -1.03580
C          2.41780        3.47300       -0.56390
C          1.02600        2.97080       -0.85920
O          1.08030        1.80030       -1.58730
Cl         4.49150        5.18570       -0.68020
H          2.22370        5.27750       -1.64750
H          3.08700        2.86880        0.03810
H          0.48770        3.71820       -1.48050
H          0.40080        2.85340        0.04450
F          3.17090        0.66450        1.79260
H          1.23770        0.06480        1.92030
H          1.51830        1.70260        1.33160
O          1.34680        0.07820       -3.53990
O          2.10260       -1.55960       -2.34540
