19
TSA8_9_CH2F_NO2_Cl
C          2.54070        1.22410       -0.50320
C          1.23470        0.90990       -1.30990
C          2.30250        0.92730        0.99010
H          3.36390        0.55090       -0.83160
N          1.49930       -0.04350       -2.37040
C          2.95400        2.68250       -0.79320
C          1.81230        3.65680       -0.46940
C          0.45000        3.03560       -0.82120
O          0.60250        2.07600       -1.84410
Cl         4.47660        3.18850       -0.00860
H          3.13050        2.74470       -1.88980
H          1.78500        3.97690        0.59460
H         -0.24700        3.83670       -1.14200
H         -0.02590        2.56630        0.07000
F          3.46230        1.10220        1.72230
H          1.98620       -0.13130        1.10640
H          1.50970        1.56960        1.42140
O          1.27040        0.23100       -3.50990
O          1.94980       -1.24320       -2.07240
