20
TSA8_9_CCl3_NO2_OH
C          1.96550       -0.26670        0.00270
C          1.55200       -1.24720        0.87870
C          1.87360        0.06770       -1.48710
H          2.52390        0.53610        0.47290
N          1.86630       -1.07490        2.26950
C          2.15070       -4.90650       -1.30840
C          1.85880       -3.60310       -1.17970
C          0.58460       -3.13520       -0.52120
O          0.86820       -2.40210        0.60570
O          3.29930       -5.31230       -1.89400
H          1.46360       -5.66190       -0.93970
H          2.56210       -2.86600       -1.55180
H         -0.01050       -4.01530       -0.19660
H         -0.09690       -2.58670       -1.18280
Cl         0.92270       -0.89490       -2.63030
Cl         1.19770        1.71270       -1.60660
Cl         3.53410        0.12780       -2.12720
O          1.52840       -1.90670        3.05640
O          2.52140       -0.01950        2.70840
H          3.95430       -4.68920       -2.24060
