21
TSA8_9_CH2F_OMe_F
C          2.97440        1.13090        0.58350
C          2.04220        2.15860       -0.01480
C          2.16730       -0.05090        1.14090
H          3.60550        0.72180       -0.23720
O          2.11530        2.42510       -1.34390
C          3.95470        1.78280        1.59880
C          3.31560        2.45080        2.79690
C          2.71040        1.77680        3.77930
O          1.23180        2.74140        0.69420
F          4.68540        2.74340        0.91820
H          4.67920        1.02330        1.96420
H          3.38110        3.53180        2.88220
H          2.28540        2.31530        4.62050
H          2.64710        0.69530        3.77450
F          3.01650       -1.01480        1.65510
H          1.57200       -0.51040        0.32270
H          1.45170        0.27180        1.92270
C          1.32910        3.36040       -1.98230
H          1.58760        3.37820       -3.06090
H          1.51260        4.36910       -1.55380
H          0.25530        3.09650       -1.87490
