21
TSA8_9_CBr3_CHF2_CN
C          2.16000       -1.51490       -1.24900
C          1.47380       -2.24090       -0.02830
C          2.22750        0.08900       -1.46600
H          1.91630       -0.93250       -0.39590
C          2.02130       -2.29400        1.40880
C          1.65700       -2.32920       -2.53800
C          0.73820       -1.56180       -3.43300
C         -0.51170       -1.31190       -3.06220
O          0.36160       -2.73580       -0.18040
C          2.71870       -2.96700       -3.33700
H          1.11200       -3.25810       -2.26340
H          1.10230       -1.18530       -4.38680
H         -0.89180       -1.69760       -2.12280
H         -1.14940       -0.72080       -3.70140
Br         0.53030        1.00880       -0.94720
Br         3.64790        0.90500       -0.37480
Br         2.65330        0.79980       -3.22910
F          1.11750       -2.93600        2.24190
F          3.22730       -2.96020        1.44420
H          2.15470       -1.26040        1.79910
N          3.47720       -3.50900       -4.02640
