19
TSA8_9_NO2_F_CH2F
C          2.82250        0.07180        1.54980
C          1.28300        0.25920        1.75610
N          3.10510       -0.98010        0.57780
H          3.23130        1.02020        1.13370
F          1.02980        1.60260        1.97230
C          3.43210       -0.19850        2.94740
C          2.82700       -1.47660        3.55390
C          1.38000       -1.68810        3.07980
O          0.72800       -0.45540        2.86510
C          4.96650       -0.19090        3.04090
H          3.09260        0.65300        3.58060
H          3.39320       -2.39970        3.30160
H          0.83480       -2.27960        3.84370
H          1.34070       -2.29750        2.15340
O          4.22630       -1.17410        0.21860
O          2.12610       -1.60160       -0.04650
F          5.53870       -1.26670        2.38930
H          5.26590       -0.24710        4.10960
H          5.36790        0.75540        2.62030
