19
TSA8_9_CHF2_NO2_I
C          1.82800       -0.04950       -0.16250
C          1.50850       -0.48870       -1.42400
C          1.90680        1.30660        0.50950
H          2.07740       -0.81750        0.56230
N          1.50930       -1.90300       -1.66120
C          3.34170        2.46150       -3.95180
C          2.73180        2.03500       -2.84080
C          1.28540        1.60640       -2.84150
O          1.18120        0.27210       -2.51670
I          5.37360        3.03020       -3.90440
H          2.81150        2.51880       -4.89750
H          3.30220        1.98740       -1.92030
H          0.86420        1.72650       -3.86260
H          0.63290        2.22720       -2.20650
F          3.19650        1.50660        0.96360
F          1.53320        2.39360       -0.23150
H          1.23060        1.27980        1.38980
O          1.23820       -2.31890       -2.74680
O          1.80920       -2.76270       -0.70920
