24
TSA8_9_CH2F_CBr3_OMe
C          3.00670       -0.27820       -1.49450
C          1.54560       -0.73750       -1.75970
C          2.96650        1.01150       -0.64480
H          3.54300       -0.99020       -0.83200
C          1.25340       -2.25380       -1.87710
C          3.80810       -0.11000       -2.81530
C          2.89160        0.22500       -4.01080
C          1.57830        0.86520       -3.57230
O          0.80310        0.04190       -2.70450
O          4.49850       -1.31680       -3.09410
H          4.53000        0.72320       -2.64160
H          2.61370       -0.69750       -4.55670
H          0.98230        1.04110       -4.49200
H          1.74510        1.86380       -3.12990
F          4.24950        1.39530       -0.29360
H          2.40530        0.81270        0.29370
H          2.47490        1.86190       -1.14510
Br         1.91540       -3.20230       -0.31860
Br        -0.66750       -2.51950       -1.90100
Br         1.97050       -3.11600       -3.45650
C          5.66830       -1.06050       -3.84280
H          6.08070       -2.03000       -4.19050
H          6.44100       -0.57260       -3.20920
H          5.45430       -0.45890       -4.75470
