14
TSA8_9_H_I_Cl
C          1.08280        0.14880       -1.52370
C          1.70180       -1.04640       -0.85320
H          1.89330        0.86010       -1.79150
H          0.39420        0.65860       -0.81480
I          1.15450       -1.56970        1.11620
C          0.30960       -0.24870       -2.78900
C         -0.84060       -1.16260       -2.44870
C         -0.92970       -2.40180       -2.93970
O          2.52720       -1.72520       -1.44480
Cl        -0.33860        1.21310       -3.57690
H          1.01020       -0.73640       -3.50360
H         -1.61800       -0.80340       -1.78020
H         -0.17050       -2.79840       -3.60730
H         -1.77060       -3.03180       -2.66960
