14
TSA8_9_H_I_Cl
C          2.25840       -0.19720        0.10210
C          1.38770       -1.03060       -0.46760
H          2.73660        0.58340       -0.48150
H          2.50050       -0.28660        1.15590
I          0.50670       -2.53400        0.75870
C         -0.90010       -0.54230       -4.49540
C         -0.76680       -0.62440       -3.16690
C          0.18280       -1.59240       -2.52320
O          1.11780       -0.88520       -1.79190
Cl        -2.02240        0.60710       -5.20460
H         -0.32100       -1.18010       -5.15590
H         -1.35850        0.02560       -2.53000
H          0.71710       -2.19380       -3.28980
H         -0.40590       -2.28820       -1.89530
