21
TSA8_9_Me_CBr3_OH
C          2.83230       -1.43940       -0.31640
C          1.36770       -1.97540       -0.19300
C          2.80170       -0.01060       -0.87600
H          3.33010       -1.39140        0.67710
C          0.87170       -2.20340        1.24590
C          3.65940       -2.37710       -1.22140
C          2.92700       -2.61280       -2.55780
C          1.41190       -2.78000       -2.33900
O          1.13760       -3.12610       -0.99620
O          3.81500       -3.60620       -0.55600
H          4.66850       -1.93770       -1.40110
H          3.37990       -3.49470       -3.06090
H          1.00960       -3.55280       -3.02660
H          0.88490       -1.83600       -2.61220
H          2.32920        0.02210       -1.88000
H          3.83500        0.38860       -0.95820
H          2.22710        0.65480       -0.19810
Br         1.01110       -0.58570        2.30970
Br        -0.99920       -2.70820        1.20890
Br         1.86620       -3.62180        2.12280
H          4.59880       -4.06030       -0.96290
