19
TSA8_9_F_OMe_OH
C          3.13280       -0.75260        0.50760
C          1.74190       -0.91380        1.18400
F          2.95190       -0.61800       -0.85870
H          3.64760        0.16150        0.87470
O          1.47820        0.02210        2.21360
C          3.96510       -2.00790        0.78740
C          3.21430       -3.26530        0.30670
C          1.69060       -3.10460        0.46590
O          1.39310       -2.24910        1.54850
O          5.22420       -1.91410        0.17650
H          4.08620       -2.07090        1.89270
H          3.41620       -3.51510       -0.75820
H          1.22650       -4.10080        0.61800
H          1.24030       -2.69730       -0.47070
C          2.16230       -0.32400        3.39780
H          1.95340        0.45810        4.15660
H          3.26300       -0.33350        3.25320
H          1.79100       -1.28400        3.81810
H          5.79650       -2.60760        0.59800
