25
TSA8_9_NO2_CH2F_Et
C          2.80790        1.17140        0.32020
C          2.06170        1.35940       -0.98930
N          1.92290        0.57920        1.31350
H          3.61580        0.43120        0.15520
C          2.48750        0.63720       -2.23250
C          3.50000        2.49210        0.82370
C          2.61440        3.73230        0.76060
C          1.57780        3.96550        1.56740
O          1.08410        2.09360       -1.03210
C          4.78920        2.80590        0.01020
H          3.84510        2.36390        1.87410
H          2.85280        4.50720        0.03360
H          1.01060        4.88430        1.45490
H          1.29440        3.28100        2.35140
O          2.19370       -0.48490        1.78020
O          0.76920        1.13070        1.61580
F          1.64160        0.94300       -3.28570
H          2.45660       -0.45760       -2.05560
H          3.51980        0.94030       -2.50110
C          5.93640        1.81310        0.24690
H          5.18400        3.79270        0.34600
H          4.56550        2.88080       -1.07610
H          6.18180        1.76630        1.33020
H          6.84100        2.15870       -0.29660
H          5.70520        0.79450       -0.11710
