25
TSA8_9_NO2_CH2F_Et
C          1.92000        0.08610       -0.01940
C          1.52240        1.10870       -0.82340
N          1.80350        0.03420        1.39990
H          2.33970       -0.79630       -0.49880
C          1.60310        0.93100       -2.31760
C          4.08770        3.22590        0.97660
C          3.08330        3.46700        0.11820
C          1.65180        3.19190        0.49840
O          1.05620        2.32200       -0.40530
C          5.52530        3.48980        0.62490
H          3.87170        2.82950        1.96540
H          3.29080        3.86830       -0.86990
H          1.09120        4.14890        0.47080
H          1.59100        2.83700        1.53600
O          2.30220       -0.88260        1.97980
O          0.91350        0.76430        2.03040
F          0.34200        1.08010       -2.86350
H          1.99570       -0.06650       -2.61030
H          2.27440        1.70560       -2.74260
C          6.33860        2.20490        0.73300
H          5.93420        4.24000        1.33470
H          5.62010        3.89400       -0.40670
H          6.28510        1.80020        1.76700
H          7.40160        2.41460        0.49010
H          5.95150        1.44320        0.02300
