25
TSA8_9_NO2_CH2F_Et
C          2.95310        1.14000        0.32450
C          1.69770        1.25660       -0.57580
N          2.59770        0.41400        1.53250
H          3.69160        0.52650       -0.23530
C          1.97290        1.38160       -2.07920
C          3.56570        2.52950        0.69680
C          2.68750        3.67650        0.18500
C          1.21430        3.37130        0.47430
O          0.70940        2.17750       -0.12180
C          5.01640        2.73310        0.20920
H          3.57760        2.62610        1.80630
H          2.81870        3.85000       -0.89960
H          0.61600        4.22830        0.10020
H          1.06660        3.31340        1.57290
O          3.11930       -0.63340        1.77560
O          1.69700        0.89200        2.36480
F          0.77860        1.32260       -2.77320
H          2.60620        0.52980       -2.40500
H          2.49600        2.31520       -2.34880
C          6.00550        1.73270        0.81250
H          5.34890        3.75080        0.51290
H          5.05840        2.66970       -0.90010
H          5.98670        1.79160        1.92110
H          7.03080        1.97570        0.46160
H          5.77940        0.69350        0.50120
