17
TSA8_9_CHF2_Cl_F
C          1.70110       -0.35280       -1.64150
C          0.92220       -1.13930       -0.60990
C          1.58100        1.15870       -1.35480
H          2.77120       -0.62510       -1.50490
Cl         1.75790       -2.27510        0.43830
C          1.36350       -0.72590       -3.11640
C         -0.03690       -0.40590       -3.58860
C         -1.11550       -1.09550       -3.20620
O         -0.27290       -0.95730       -0.44360
F          2.24860       -0.05300       -3.94260
H          1.54760       -1.81050       -3.27750
H         -0.17070        0.39400       -4.31140
H         -1.04020       -1.93710       -2.52800
H         -2.09250       -0.83200       -3.59790
F          2.40510        1.88490       -2.19600
F          0.27750        1.59750       -1.50980
H          1.89870        1.36250       -0.30960
