17
TSA8_9_H_H_CCl3
C          3.28110        0.55730       -1.69250
C          1.80300        0.25640       -1.65120
H          3.71820        0.29020       -0.70670
H          3.71610       -0.11780       -2.45780
H          1.48060       -0.75240       -1.41560
C          3.62480        2.03160       -2.03550
C          3.08340        2.94870       -0.95350
C          2.17620        3.89570       -1.21250
O          0.96170        1.10840       -1.89030
C          5.15440        2.25240       -2.20610
H          3.15080        2.27530       -3.01370
H          3.44260        2.83630        0.06560
H          1.78940        4.04440       -2.21580
H          1.81370        4.53190       -0.41180
Cl         5.49130        3.95420       -2.63540
Cl         6.07030        1.86470       -0.71890
Cl         5.80340        1.25030       -3.53530
