16
TSA8_9_Cl_F_NH2
C          2.80350        0.27640        1.87890
C          1.42150        0.08370        1.31180
Cl         3.99810        0.27020        0.54420
H          2.83350        1.28250        2.34990
F          0.49090        1.06190        1.46240
C          3.13460       -0.76800        2.97330
C          3.19030       -2.18030        2.42360
C          2.36120       -3.13970        2.84580
O          1.12710       -0.93660        0.70890
N          4.40650       -0.43560        3.61830
H          2.33760       -0.69250        3.74880
H          3.92920       -2.42450        1.66590
H          1.60840       -2.94090        3.60210
H          2.43470       -4.13900        2.42960
H          5.19980       -0.53810        2.94500
H          4.57000       -1.08840        4.41920
