16
TSA8_9_Cl_F_NH2
C          2.76340       -0.05030        1.78940
C          1.28770       -0.44440        1.49360
Cl         3.84870       -0.69890        0.51800
H          2.86420        1.05580        1.74290
F          0.46840        0.59700        1.89130
C          3.12720       -0.57570        3.18450
C          2.96640       -2.10970        3.23510
C          1.85830       -2.58380        2.27710
O          0.83530       -1.61840        2.17440
N          4.46390       -0.15670        3.60700
H          2.38550       -0.13480        3.88830
H          3.89280       -2.65890        2.95640
H          1.44400       -3.54380        2.64830
H          2.26110       -2.80230        1.26290
H          5.19310       -0.60220        3.00530
H          4.62180       -0.45850        4.59520
