24
TSA8_9_CH2F_CN_Et
C          2.80410       -0.39930       -1.42720
C          1.45140       -1.14770       -1.20930
C          2.47700        1.04350       -0.94690
H          3.59060       -0.81780       -0.76030
C          1.54280       -2.24090       -0.22560
C          3.18380       -0.59720       -2.94870
C          2.06490        0.01480       -3.77380
C          0.70920       -0.56520       -3.34000
O          0.84480       -1.62050       -2.40020
C          4.55740       -0.36270       -3.65250
H          3.10620       -1.69620       -3.11510
H          2.08190        1.12710       -3.73640
H          0.27100       -0.99130       -4.26520
H          0.01570        0.21820       -2.96870
F          3.58510        1.86070       -0.92390
H          2.05250        1.00630        0.08700
H          1.67490        1.51690       -1.55550
N          1.61880       -3.08810        0.55600
C          5.32590        0.92850       -3.44120
H          4.35960       -0.44960       -4.75050
H          5.25530       -1.19680       -3.42090
H          4.70410        1.82250       -3.63230
H          6.17870        0.93460       -4.16410
H          5.75580        0.93890       -2.42040
