24
TSA8_9_OMe_CHF2_CF3
C          0.78600        0.05840       -1.96000
C          1.41940       -1.31140       -1.57120
O          1.71790        1.08580       -1.66190
H         -0.20660        0.19460       -1.46120
C          1.46080       -1.57230       -0.06430
C          0.49960        0.01200       -3.47510
C         -0.47090       -1.15670       -3.78050
C         -0.38550       -2.26660       -2.72030
O          0.94530       -2.44900       -2.29470
C         -0.04420        1.33350       -4.05190
H          1.46500       -0.21360       -3.98160
H         -1.53780       -0.84690       -3.82720
H         -0.78350       -3.21060       -3.14380
H         -1.03090       -2.02440       -1.84240
C          1.29750        1.87140       -0.56460
H          0.67430        2.71850       -0.92030
H          2.20040        2.27940       -0.06520
H          0.75770        1.29300        0.21810
F          0.17930       -1.69330        0.44150
F          2.16020       -2.73820        0.18480
H          1.97960       -0.73950        0.45240
F         -1.23640        1.67600       -3.43680
F          0.86660        2.35660       -3.86270
F         -0.26460        1.19420       -5.41130
