19
TSA8_9_CN_Me_OH
C          2.48870        1.30670        1.10670
C          1.43260        2.21410        0.48310
C          2.12170       -0.14600        1.01030
H          3.39040        1.41210        0.49100
C          1.24880        2.29130       -1.00550
C          2.84990        1.75110        2.58890
C          2.12880        0.81870        3.50870
C          0.81270        0.91810        3.64190
O          0.80910        3.01490        1.16270
O          4.24110        1.66020        2.79080
H          2.57480        2.81890        2.79340
H          2.66400       -0.04670        3.89020
H          0.28430        1.76030        3.21040
H          0.26590        0.12860        4.13200
N          1.76620       -1.23800        0.98710
H          1.59760        3.29760       -1.32530
H          0.17540        2.19070       -1.26760
H          1.84150        1.52630       -1.54400
H          4.41190        1.76090        3.76970
