19
TSA8_9_CN_Me_OH
C          1.66160        0.06630       -0.02080
C          1.48440        1.41340        0.15080
C          1.82170       -0.94830        0.99170
H          1.57020       -0.32790       -1.02730
C          1.29800        2.25420       -1.06920
C          2.98650        2.36610        4.25960
C          2.66830        1.58970        3.21390
C          1.28870        1.61880        2.62310
O          1.36630        2.09130        1.33310
O          4.20850        2.32170        4.83490
H          2.25240        3.04850        4.67200
H          3.41750        0.92680        2.78630
H          0.62800        2.28900        3.22730
H          0.80130        0.62830        2.65840
N          1.94980       -1.78120        1.78050
H          1.75980        3.26390       -0.96850
H          0.20960        2.38330       -1.13180
H          1.66280        1.76010       -1.99500
H          4.90260        1.70670        4.55880
