19
TSA8_9_CN_Me_OH
C          2.72090        1.00640        1.05680
C          1.30730        1.49530        0.63010
C          2.62530       -0.44660        1.27820
H          3.47930        1.18980        0.26250
C          1.31480        2.23250       -0.70890
C          3.13280        1.72630        2.35510
C          2.07050        1.45010        3.43650
C          0.65300        1.57100        2.84800
O          0.66920        2.28850        1.62710
O          4.41530        1.32500        2.76890
H          3.14670        2.82260        2.15010
H          2.18280        0.42510        3.86120
H          0.01920        2.09690        3.58970
H          0.19300        0.56530        2.69730
N          2.52440       -1.58190        1.47760
H          1.91420        3.16520       -0.64600
H          0.27320        2.48720       -0.99530
H          1.73980        1.57920       -1.50130
H          4.51930        1.58240        3.72300
