21
TSA8_9_NO2_NO2_CCl3
C          2.57500        0.72240       -1.76550
C          1.59400       -0.42670       -1.55650
N          2.67330        1.50750       -0.54300
H          3.57170        0.28340       -1.97440
N          1.99090       -1.73000       -1.63390
C          2.19490        1.57970       -3.02310
C          0.85810        2.28570       -2.85920
C         -0.19700        2.00030       -3.62870
O          0.42290       -0.16910       -1.30900
C          3.29110        2.60610       -3.44350
H          2.11890        0.85740       -3.86860
H          0.74620        3.05750       -2.10550
H         -0.14170        1.24160       -4.40260
H         -1.13130        2.53310       -3.48320
O          3.71460        1.57330        0.03790
O          1.61140        2.08350       -0.02110
O          1.19920       -2.60800       -1.46390
O          3.24270       -2.04410       -1.89350
Cl         2.82100        3.41420       -4.96730
Cl         3.56730        3.88330       -2.22390
Cl         4.85050        1.79490       -3.76550
