21
TSA8_9_NO2_NO2_CCl3
C          1.99130        0.05950       -0.21010
C          1.54750       -0.53860       -1.36820
N          1.83130        1.39570        0.27760
H          2.55080       -0.57780        0.46840
N          1.83810       -1.93150       -1.54850
C          2.07480        2.52650       -4.38120
C          1.81610        2.07220       -3.14280
C          0.55390        1.30850       -2.82790
O          0.85130        0.03010       -2.40650
C          3.33660        3.28310       -4.70680
H          1.35680        2.34530       -5.17690
H          2.53460        2.25330       -2.34990
H         -0.06020        1.21140       -3.74840
H         -0.11400        1.82510       -2.12130
O          2.34710        1.68370        1.31460
O          1.05430        2.28100       -0.29020
O          1.47820       -2.48510       -2.54370
O          2.49790       -2.62420       -0.64280
Cl         3.34490        3.73400       -6.43100
Cl         3.43840        4.77480       -3.73510
Cl         4.76830        2.27050       -4.38390
