19
TSA8_9_CN_OMe_F
C          2.65430        0.98880        0.63690
C          1.34570        1.52910        0.03060
C          2.30370       -0.29610        1.27110
H          3.42130        0.80390       -0.14600
O          1.41750        1.67510       -1.38270
C          3.16760        2.02540        1.64760
C          2.12490        2.22020        2.74370
C          0.71520        2.34950        2.12840
O          0.75960        2.62910        0.73490
F          4.38980        1.67590        2.19270
H          3.29250        3.00070        1.12260
H          2.13080        1.34810        3.44100
H          0.21520        3.18720        2.65330
H          0.10130        1.43950        2.32730
N          2.00130       -1.28390        1.79360
C          1.47340        3.02380       -1.79110
H          1.57150        3.04360       -2.89760
H          2.35640        3.55770       -1.37600
H          0.51750        3.54040       -1.55960
