20
TSA8_9_Me_Me_H
C          1.67790       -1.51810        0.66820
C          0.75880       -0.41800        1.24180
C          1.41740       -1.67670       -0.83730
H          2.74350       -1.21640        0.77170
C          1.22180        0.18250        2.57640
C          1.44720       -2.82920        1.44050
C         -0.04130       -3.17550        1.46570
C         -0.82670       -1.97870        2.01550
O         -0.61270       -0.80410        1.24420
H          2.03710       -3.66160        1.00060
H          1.78740       -2.69910        2.49030
H         -0.40340       -3.42660        0.44720
H         -0.59260       -1.80510        3.08680
H         -1.90650       -2.23130        1.97740
H          0.36320       -1.94250       -1.05590
H          2.08100       -2.46220       -1.25740
H          1.64080       -0.72040       -1.35680
H          1.24840       -0.56840        3.39060
H          0.53860        1.00780        2.86590
H          2.24320        0.60030        2.45760
