21
TSA8_9_CN_CH2F_CHF2
C          3.02710        0.31330        1.12810
C          1.83090        1.35700        1.03630
C          2.28420       -0.96610        0.94870
H          3.66610        0.35420        0.19990
C          1.52440        2.36730       -0.05230
C          3.88530        0.19050        2.53370
C          3.02830        0.90720        3.49630
C          1.98410        0.31810        4.04160
O          0.90830        1.25280        1.83760
C          5.34350        0.49840        3.11690
H          3.91210       -0.91100        2.72930
H          3.18930        1.97930        3.60660
H          1.29810        0.93620        4.59500
H          1.78690       -0.72550        3.82510
N          1.74020       -1.97900        0.87570
F          1.84960        3.64200        0.37620
H          0.41370        2.38340       -0.21990
H          1.96680        2.14150       -1.03660
F          6.40890        0.02920        2.37350
F          5.57710        1.81720        3.48270
H          5.41730       -0.05640        4.10000
