21
TSA8_9_CN_CH2F_CHF2
C          1.65990        0.08730       -0.01230
C          1.50050        1.23800        0.70510
C          1.81790       -1.24600        0.52370
H          1.53610        0.13270       -1.09420
C          1.16200        2.48790       -0.06140
C          4.34350        0.25100        4.00540
C          3.56470        0.91620        3.13990
C          2.09860        0.57480        3.03980
O          1.47950        1.34510        2.07290
C          5.82060        0.50020        4.13040
H          3.90050       -0.51380        4.63470
H          3.99580        1.69920        2.51680
H          1.61710        0.77230        4.02930
H          1.96070       -0.49570        2.83250
N          1.94500       -2.32430        0.92500
F          1.68380        3.61900        0.54480
H          0.06010        2.56530       -0.03160
H          1.50380        2.44650       -1.12180
F          6.45880        0.14220        2.95700
F          6.07630        1.83010        4.40830
H          6.23190       -0.12350        4.95300
