21
TSA8_9_CN_CH2F_CHF2
C          3.03360        0.21560        1.19510
C          1.70780        1.10940        1.15930
C          2.43500       -1.13620        0.98590
H          3.67790        0.37700        0.30210
C          1.46890        2.26550        0.17310
C          3.82190        0.19120        2.63010
C          3.11480        1.17270        3.50230
C          1.65190        0.81910        3.49580
O          1.00730        1.35660        2.37170
C          5.33300        0.38080        3.07690
H          3.64160       -0.82850        3.04690
H          3.28810        2.19340        3.05570
H          1.22160        1.23450        4.42100
H          1.49510       -0.28140        3.51680
N          2.00130       -2.20170        0.82480
F          2.11580        3.41110        0.58910
H          0.37260        2.49190        0.15970
H          1.74000        2.01730       -0.87190
F          6.28200       -0.26800        2.31480
F          5.71520        1.70080        3.28850
H          5.40360       -0.07300        4.10650
