21
TSA8_9_CN_F_Et
C          2.70470        1.20870        0.57790
C          1.92730        0.97100       -0.72090
C          1.96890        0.47180        1.62280
H          3.68890        0.71940        0.43410
F          1.71500       -0.30770       -1.13000
C          2.92960        2.69280        1.10540
C          2.41710        3.74630        0.16030
C          1.14970        4.16310        0.23880
O          1.48640        1.86910       -1.41840
C          4.36420        3.10000        1.55480
H          2.33100        2.81240        2.03920
H          3.06140        4.12600       -0.62900
H          0.76700        4.88490       -0.47020
H          0.48320        3.75320        0.99350
N          1.35060       -0.07290        2.43540
C          5.02950        2.18320        2.58180
H          4.28450        4.10700        2.02760
H          5.04640        3.19440        0.68230
H          4.38130        2.03750        3.46990
H          5.98050        2.65480        2.92080
H          5.28170        1.20320        2.12920
