21
TSA8_9_CN_F_Et
C          1.65470        0.01040       -0.07840
C          1.49310        0.83860       -1.14150
C          1.83520        0.38440        1.30580
H          1.58950       -1.05500       -0.26530
F          1.40490        0.24590       -2.35480
C          3.24270        3.84900        1.47010
C          2.90340        3.08830        0.42630
C          1.48200        3.05760       -0.05080
O          1.38090        2.20170       -1.12240
C          4.64430        3.89850        2.01500
H          2.48120        4.45520        1.94620
H          3.65420        2.47760       -0.07590
H          1.17750        4.08330       -0.37000
H          0.78550        2.73930        0.75710
N          1.98080        0.66930        2.41890
C          5.06750        2.55340        2.60290
H          4.68120        4.65300        2.82930
H          5.35260        4.21070        1.21760
H          4.38370        2.27110        3.43230
H          6.09910        2.62880        3.00840
H          5.04850        1.75880        1.82880
