21
TSA8_9_CN_F_Et
C          2.67560        1.29360        0.56910
C          1.41930        1.22170       -0.31540
C          2.42550        0.34190        1.66310
H          3.56580        1.01610       -0.04340
F          1.37450       -0.00210       -0.96300
C          2.87550        2.73190        1.15270
C          2.57180        3.79500        0.08410
C          1.24290        3.47110       -0.58330
O          1.38290        2.25100       -1.27370
C          4.30530        3.03070        1.68230
H          2.13070        2.88040        1.96660
H          3.35510        3.79850       -0.70690
H          0.99800        4.27020       -1.31150
H          0.40600        3.44370        0.15700
N          2.22820       -0.41020        2.52240
C          4.85410        2.06280        2.72360
H          4.29680        4.05200        2.12780
H          5.02350        3.03620        0.83220
H          4.18020        1.99920        3.60130
H          5.84940        2.43080        3.05840
H          5.00220        1.05760        2.27680
