20
TSA8_9_CHF2_Cl_CBr3
C          1.86100       -0.07000       -0.07140
C          1.08680       -1.15820       -0.22700
C          2.34970        0.81990       -1.18770
H          2.15740        0.21210        0.93490
Cl         0.60210       -2.04490        1.22410
C         -0.28270       -3.99640       -3.67660
C         -0.41690       -2.76570       -3.15370
C         -0.28540       -2.51790       -1.67780
O          0.68400       -1.56440       -1.45950
C         -0.41320       -4.25840       -5.15460
H         -0.08070       -4.83560       -3.01700
H         -0.63430       -1.92070       -3.80170
H         -0.02660       -3.45980       -1.14510
H         -1.25780       -2.14350       -1.29350
F          3.73130        0.84600       -1.17700
F          1.91870        0.41260       -2.43730
H          1.97230        1.84840       -1.00690
Br        -0.21720       -6.15560       -5.50560
Br        -2.15480       -3.70130       -5.80350
Br         0.96890       -3.31390       -6.13240
