18
TSA8_9_Cl_CH2F_CN
C          2.07930       -1.85580       -0.50470
C          2.68580       -2.25610        0.81480
Cl         3.04400       -0.58990       -1.31990
H          1.11380       -1.37200       -0.24470
C          2.22370       -1.57160        2.07120
C          1.72340       -3.05550       -1.41470
C          0.74330       -2.59190       -2.45970
C         -0.54960       -2.49060       -2.13200
O          3.40250       -3.24220        0.89680
C          2.87460       -3.72850       -2.04360
H          1.22000       -3.83260       -0.80340
H          1.07230       -2.30010       -3.45500
H         -0.88130       -2.77250       -1.13450
H         -1.28270       -2.12970       -2.84100
F          1.39380       -2.42340        2.77500
H          1.65410       -0.64590        1.83440
H          3.09200       -1.28500        2.69820
N          3.75020       -4.28380       -2.55510
