18
TSA8_9_Cl_CH2F_CN
C          1.58100       -0.04480        0.02000
C          1.44670       -1.38140        0.56880
Cl         1.63310        0.37630       -1.68960
H          1.48900        0.81360        0.65880
C          1.92610       -1.65980        1.97890
C          1.61620       -4.50730       -2.20850
C          1.33870       -3.20660       -2.28000
C          0.52420       -2.66020       -1.19090
O          1.47780       -2.49900       -0.20940
C          2.83460       -4.98250       -2.80310
H          1.01690       -5.17100       -1.58160
H          2.00870       -2.53370       -2.81670
H         -0.25730       -3.35180       -0.80380
H          0.02520       -1.71650       -1.50430
F          1.31430       -2.82360        2.38540
H          1.67640       -0.82130        2.63760
H          3.04340       -1.85150        2.05090
N          3.82070       -5.33990       -3.29000
