19
TSA8_9_CHF2_Br_NH2
C          1.59060       -0.69510        1.94580
C          0.90110        0.42000        1.18940
C          1.65390       -1.96030        1.05970
H          2.64300       -0.37470        2.11400
Br         1.86200        2.01060        0.73750
C          0.94990       -0.87790        3.35750
C         -0.51720       -1.26400        3.31890
C         -1.46900       -0.47130        3.82250
O         -0.26790        0.31920        0.84950
N          1.69840       -1.84960        4.15850
H          1.05140        0.11000        3.86430
H         -0.81190       -2.21170        2.88060
H         -1.22470        0.48470        4.27530
H         -2.50860       -0.77880        3.78210
F          2.42300       -2.94780        1.64630
F          0.39610       -2.46060        0.78060
H          2.14120       -1.69860        0.09540
H          1.51080       -2.82150        3.82380
H          1.36820       -1.79860        5.15040
