19
TSA8_9_CHF2_Br_NH2
C          1.84550       -0.06450        0.05360
C          1.10470        0.30980        1.11100
C          2.27250       -1.47780       -0.25780
H          2.16340        0.70160       -0.64730
Br         0.66940        2.17870        1.28580
C         -0.11460       -1.55670        5.20230
C         -0.40080       -1.53720        3.89230
C         -0.18780       -0.30650        3.05830
O          0.67630       -0.60000        2.02490
N         -0.32310       -2.72390        5.97810
H          0.28020       -0.66920        5.68990
H         -0.80010       -2.42620        3.41220
H          0.22800        0.51850        3.67590
H         -1.16720        0.01370        2.64110
F          3.65240       -1.53390       -0.30540
F          1.81860       -2.39980        0.66780
H          1.86950       -1.75580       -1.25410
H         -0.69450       -3.58690        5.55430
H         -0.10140       -2.71470        6.98360
