19
TSA8_9_CHF2_Br_NH2
C          1.62500       -0.96850        2.16150
C          1.06690        0.33820        1.56090
C          1.56230       -2.07780        1.08820
H          2.69970       -0.82420        2.40890
Br         1.58770        1.95940        2.51730
C          0.83420       -1.26810        3.46290
C         -0.67430       -1.26650        3.17900
C         -1.05290        0.05970        2.50920
O         -0.32930        0.26600        1.30500
N          1.25540       -2.51440        4.10560
H          1.04120       -0.43720        4.17480
H         -0.95350       -2.11230        2.51570
H         -0.91440        0.91000        3.21140
H         -2.13610        0.02970        2.26980
F          2.26500       -1.67280       -0.03370
F          2.14240       -3.24480        1.54900
H          0.51810       -2.28870        0.77980
H          0.89990       -3.33840        3.57030
H          0.82690       -2.56290        5.05860
