20
TSA8_9_F_CCl3_CH2F
C          1.82320        0.07130       -0.17460
C          1.54530        0.91530       -1.19570
F          2.08220        0.51440        1.08270
H          1.81810       -1.00250       -0.31010
C          1.19970        0.42280       -2.59080
C          2.39380        4.92590       -1.80750
C          3.06190        4.03900       -1.05480
C          2.33340        3.03890       -0.20750
O          1.54380        2.26950       -1.04050
C          3.11770        5.89750       -2.68630
H          1.30740        4.93620       -1.79880
H          4.14850        4.02670       -1.06690
H          1.69650        3.56500        0.53460
H          3.09760        2.43630        0.32360
Cl         2.37790        1.10730       -3.73930
Cl         1.20570       -1.35490       -2.80790
Cl        -0.41990        1.01800       -3.03320
F          3.93990        6.70710       -1.92450
H          2.38330        6.52940       -3.22700
H          3.73000        5.34400       -3.43140
