19
TSA8_9_OH_OMe_Br
C          3.13280       -0.94320        0.27200
C          2.22190       -0.85170        1.47080
O          2.45540       -0.49380       -0.87380
H          4.00450       -0.27720        0.47730
O          2.60160       -0.08000        2.52200
C          3.74710       -2.34160        0.00580
C          2.77240       -3.40960       -0.44370
C          1.88410       -3.98690        0.36960
O          1.13440       -1.40960        1.47060
Br         5.09010       -2.13970       -1.39130
H          4.29550       -2.69860        0.90490
H          2.81850       -3.76440       -1.46970
H          1.81370       -3.72160        1.41690
H          1.22790       -4.76210       -0.01350
H          2.46080        0.49870       -0.84280
C          1.85080        0.09270        3.66500
H          2.38910        0.77790        4.35220
H          1.70250       -0.88240        4.17600
H          0.86590        0.54080        3.41350
