19
TSA8_9_OH_OMe_Br
C          1.65960       -0.00140       -0.11740
C          1.73460       -0.49450        1.13440
O          1.53550       -0.78190       -1.20610
H          1.69530        1.07590       -0.25540
O          1.84730        0.39920        2.14890
C          4.23540       -3.95770        0.83270
C          3.46660       -2.95880        0.38580
C          1.98610       -2.92380        0.65690
O          1.69290       -1.82520        1.44400
Br         6.11840       -3.95160        0.50980
H          3.81030       -4.78270        1.39660
H          3.91800       -2.14050       -0.16540
H          1.68390       -3.83250        1.22220
H          1.39670       -2.93340       -0.27900
H          1.47500       -0.38430       -2.08920
C          2.24710        0.04870        3.41850
H          2.19600        0.93890        4.07840
H          3.29710       -0.31280        3.39010
H          1.59170       -0.74690        3.83630
