17
TSA8_9_CCl3_Cl_Br
C          1.82690       -0.00810       -0.00740
C          1.13940       -1.12460       -0.31790
C          2.14960        1.16710       -0.91260
H          2.19730        0.07650        1.01120
Cl         0.90720       -2.33010        0.95480
C         -0.14820       -3.23000       -4.26580
C         -0.49430       -2.29720       -3.37300
C         -0.12970       -2.41510       -1.92220
O          0.63440       -1.32700       -1.56050
Br        -0.63340       -3.03630       -6.10510
H          0.41220       -4.11080       -3.96750
H         -1.05570       -1.42660       -3.69880
H          0.43840       -3.35270       -1.73100
H         -1.06460       -2.43170       -1.32100
Cl         1.55410        1.06960       -2.59590
Cl         1.45820        2.63590       -0.18380
Cl         3.91810        1.35440       -0.97730
