17
TSA8_9_F_I_Me
C          2.15460       -0.39530       -0.37060
C          1.37940       -0.68510       -1.43140
F          2.91300        0.72820       -0.29180
H          2.17750       -1.07750        0.47260
I          0.24820       -2.46760       -1.38200
C          3.72750       -0.15540       -4.13050
C          3.45020        0.76150       -3.19300
C          2.03130        1.18060       -2.91590
O          1.26330        0.09030       -2.54860
C          5.13530       -0.58280       -4.40470
H          2.92230       -0.60600       -4.70520
H          4.25490        1.21220       -2.61840
H          1.60750        1.61440       -3.84580
H          1.99050        1.96820       -2.13430
H          5.58160       -1.02270       -3.48790
H          5.74050        0.28970       -4.72860
H          5.14390       -1.34660       -5.21030
