21
TSA8_9_OMe_I_Me
C          0.58720       -1.24160       -1.00480
C          1.39000       -1.07980        0.26770
O          1.40280       -0.95620       -2.13050
H         -0.30390       -0.57030       -0.97490
I          0.77350        0.29540        1.74380
C          0.05300       -2.69020       -1.12480
C         -0.84480       -3.02030        0.04840
C         -0.56140       -4.00810        0.90250
O          2.40140       -1.73820        0.44780
C         -0.74230       -2.88200       -2.42280
H          0.92070       -3.38780       -1.15490
H         -1.74670       -2.43430        0.20390
H          0.33030       -4.61560        0.78440
H         -1.22900       -4.21380        1.73290
C          1.58150        0.43780       -2.27900
H          2.06940        0.62360       -3.25770
H          2.25530        0.83740       -1.49050
H          0.61350        0.98700       -2.30280
H         -0.10160       -2.68060       -3.30700
H         -1.61890       -2.19890       -2.45340
H         -1.10370       -3.93050       -2.49530
