21
TSA8_9_OMe_I_Me
C          1.51090        0.22230        0.01260
C          1.09560       -0.88470        0.63110
O          1.72910        0.20220       -1.32340
H          1.64470        1.14120        0.57800
I          0.71090       -0.80550        2.72140
C         -0.76590       -4.48150       -1.63800
C         -0.77820       -3.32480       -0.96470
C          0.11550       -3.07870        0.21560
O          0.92940       -2.01370       -0.10220
C         -1.63620       -4.67780       -2.84020
H         -0.11210       -5.29140       -1.32710
H         -1.43460       -2.52030       -1.28670
H          0.74710       -3.96680        0.43290
H         -0.51810       -2.86890        1.10260
C          2.01690        1.33730       -2.04360
H          2.14390        1.06520       -3.11180
H          2.95400        1.80270       -1.67220
H          1.17660        2.06010       -1.95970
H         -1.36730       -3.93280       -3.61930
H         -2.70380       -4.55360       -2.56400
H         -1.48220       -5.69650       -3.25180
