16
TSA8_9_F_H_NO2
C          0.72750       -1.76660       -1.09650
C          1.52000       -1.42500        0.13430
F          1.59600       -1.87170       -2.16980
H          0.01360       -0.93900       -1.30180
H          1.31810       -0.50210        0.66850
C         -0.04770       -3.08880       -0.92750
C         -1.02890       -2.99080        0.22030
C         -0.94540       -3.78320        1.29340
O          2.39320       -2.17580        0.53950
N         -0.76370       -3.40970       -2.14870
H          0.69190       -3.89830       -0.72580
H         -1.82340       -2.25140        0.17370
H         -0.16430       -4.53160        1.38130
H         -1.66580       -3.68120        2.09870
O         -1.60400       -2.67420       -2.57290
O         -0.48670       -4.51940       -2.79960
