16
TSA8_9_F_H_NO2
C          2.12160       -0.10540        0.06850
C          1.23140       -0.96180        0.56920
F          2.80930       -0.40540       -1.06490
H          2.30170        0.84250        0.56520
H          0.69320       -0.69590        1.47560
C         -1.10300       -4.52580       -1.24940
C         -0.92790       -3.31070       -0.70060
C          0.07920       -3.07080        0.38730
O          1.00470       -2.14480       -0.05000
N         -2.05490       -4.76140       -2.28230
H         -0.50270       -5.36160       -0.90050
H         -1.52070       -2.46640       -1.03910
H          0.61490       -4.00750        0.65280
H         -0.45910       -2.71650        1.29430
O         -2.73950       -3.87850       -2.70500
O         -2.18130       -5.97210       -2.78070
