16
TSA8_9_F_H_NO2
C          0.65420       -1.93270       -1.22260
C          1.01690       -1.50710        0.21570
F          1.79450       -2.12330       -1.98200
H          0.08230       -1.08220       -1.65350
H          0.23940       -0.83640        0.65010
C         -0.17800       -3.23560       -1.21840
C         -1.04300       -3.25810        0.03910
C         -0.07380       -3.31140        1.25010
O          1.17090       -2.63090        1.05690
N         -0.97010       -3.36200       -2.42570
H          0.51350       -4.10710       -1.14120
H         -1.65750       -2.33030        0.06010
H          0.18110       -4.38290        1.38970
H         -0.58170       -2.96690        2.17580
O         -1.80270       -2.54840       -2.69410
O         -0.78210       -4.38580       -3.23020
