20
TSA8_9_F_Et_H
C          2.00430        0.25880       -2.02520
C          0.86670       -0.68580       -2.31080
F          1.60860        1.13520       -1.03020
H          2.88380       -0.31650       -1.66070
C          1.05290       -2.17110       -2.10940
C          2.40630        1.01940       -3.30050
C          3.58320        1.93620       -3.08460
C          3.52930        3.00250       -2.27970
O         -0.20320       -0.23650       -2.69910
H          2.69490        0.27140       -4.07130
H          1.54910        1.61000       -3.69140
H          4.50670        1.73190       -3.61870
H          2.62450        3.25940       -1.73970
H          4.40150        3.63760       -2.16430
C         -0.20090       -2.98240       -2.43700
H          1.33000       -2.35690       -1.04960
H          1.88320       -2.51880       -2.76090
H         -1.04250       -2.67260       -1.78110
H         -0.00010       -4.06160       -2.27020
H         -0.48930       -2.83500       -3.49980
