20
TSA8_9_F_Et_H
C          1.90800       -0.15120       -0.19190
C          1.65720       -0.46730       -1.48150
F          2.11620        1.12230        0.23070
H          1.91730       -0.92790        0.56660
C          1.38030       -1.90370       -1.85430
C          2.39580        1.64940       -5.04030
C          3.01080        1.76050       -3.85970
C          2.24940        1.67950       -2.56930
O          1.62100        0.44920       -2.49240
H          2.96880        1.71040       -5.95960
H          1.32190        1.49690       -5.09790
H          4.08600        1.91380       -3.83380
H          1.48680        2.48670       -2.54370
H          2.97470        1.83360       -1.74880
C         -0.01360       -2.05460       -2.45520
H          1.45590       -2.57770       -0.97280
H          2.13730       -2.22780       -2.60010
H         -0.78410       -1.76340       -1.71150
H         -0.18170       -3.11390       -2.74230
H         -0.12030       -1.42120       -3.36170
