20
TSA8_9_F_Et_H
C          2.99670       -0.10860       -1.92510
C          1.43810       -0.23200       -1.89430
F          3.42120        0.74420       -0.91990
H          3.47650       -1.09420       -1.73760
C          0.99430       -1.62110       -2.38020
C          3.41450        0.46160       -3.27930
C          2.76970        1.84150       -3.49110
C          1.46260        1.98090       -2.69170
O          0.75980        0.75920       -2.67670
H          4.51750        0.53340       -3.38780
H          3.04040       -0.22470       -4.06760
H          3.43860        2.67130       -3.17540
H          0.83800        2.77760       -3.14580
H          1.66170        2.30890       -1.64540
C         -0.51820       -1.79750       -2.27070
H          1.47800       -2.39860       -1.74930
H          1.30320       -1.77790       -3.43640
H         -0.84650       -1.65900       -1.21840
H         -0.79760       -2.82000       -2.60100
H         -1.04590       -1.06510       -2.91770
