18
TSA8_9_OMe_I_Cl
C          1.49200        0.23180        0.02220
C          1.07520       -1.02390        0.20830
O          1.64170        0.71480       -1.23340
H          1.69340        0.86610        0.88130
I          0.83330       -1.71500        2.20750
C         -1.00490       -3.69230       -2.98850
C         -0.95460       -2.87710       -1.92970
C          0.12620       -2.98620       -0.89550
O          0.82720       -1.79760       -0.87950
Cl        -2.27770       -3.51520       -4.18530
H         -0.26230       -4.47140       -3.12980
H         -1.70860       -2.10260       -1.81330
H          0.82860       -3.81260       -1.13950
H         -0.34690       -3.20710        0.08190
C          1.97700        2.02520       -1.48420
H          2.03860        2.18060       -2.58080
H          2.96090        2.26330       -1.02950
H          1.19780        2.70180       -1.07080
