18
TSA8_9_OMe_I_Cl
C          0.54120       -0.54590       -1.33160
C          1.24320       -1.17440       -0.10030
O          1.46410        0.17110       -2.13080
H         -0.28020        0.10770       -0.95060
I          0.24340       -0.84460        1.77900
C         -0.10720       -1.64070       -2.19930
C         -0.71380       -2.68330       -1.27440
C          0.45420       -3.36190       -0.52080
O          1.59330       -2.53170       -0.28750
Cl        -1.33200       -0.94470       -3.29340
H          0.66280       -2.15130       -2.82100
H         -1.40470       -2.16880       -0.57110
H          0.80600       -4.17810       -1.18620
H          0.09710       -3.83500        0.41840
C          1.65330        1.47050       -1.61300
H          2.41260        1.98710       -2.23470
H          2.04820        1.44060       -0.57350
H          0.71750        2.06820       -1.67640
