18
TSA8_9_Br_Br_OMe
C          1.88880       -0.04460       -0.26920
C          1.47630        0.32690       -1.48920
Br         2.14380        1.20280        1.16390
H          2.06750       -1.09400       -0.05810
Br         1.19030       -1.00840       -2.82890
C          2.24660        2.19420       -4.51310
C          2.92140        2.23670       -3.34940
C          2.21470        2.55270       -2.05830
O          1.22430        1.62450       -1.79120
O          2.82980        1.92700       -5.71410
H          1.17750        2.38620       -4.50640
H          3.99050        2.05350       -3.31540
H          1.74960        3.55700       -2.14810
H          2.94890        2.58740       -1.22630
C          4.17000        1.67790       -5.92550
H          4.33900        1.50190       -7.00810
H          4.48650        0.77340       -5.36490
H          4.77690        2.55430       -5.61180
