18
TSA8_9_Br_Br_OMe
C          2.39850        0.33660       -2.24460
C          0.98770        0.81190       -1.78530
Br         3.68260        0.46090       -0.78000
H          2.36740       -0.74450       -2.50180
Br        -0.37230       -0.25850       -2.66530
C          2.83070        1.17320       -3.45350
C          2.85790        2.66870       -3.07120
C          1.83250        2.99330       -1.97040
O          0.69060        2.17620       -2.09250
O          4.09370        0.73780       -3.92420
H          2.02920        1.01060       -4.21390
H          3.85330        3.00750       -2.70930
H          1.54860        4.06290       -2.04310
H          2.26990        2.86820       -0.95520
C          4.26820        1.10990       -5.27430
H          3.51510        0.62060       -5.93080
H          5.26530        0.75570       -5.60690
H          4.25800        2.21540       -5.39450
