20
TSA8_9_NH2_OH_CHF2
C          2.22610        1.64590        1.73340
C          0.89270        2.30850        1.41330
N          2.22140        0.28710        1.17890
H          3.03000        2.22660        1.22860
O          0.53960        2.53150        0.12850
C          2.58340        1.58270        3.25210
C          3.85980        0.78260        3.42520
C          3.89790       -0.35550        4.12470
O          0.10910        2.61520        2.29690
C          2.82100        2.97040        3.89530
H          1.75370        1.07500        3.79450
H          4.77540        1.14250        2.96310
H          3.00780       -0.75460        4.60070
H          4.83220       -0.89900        4.22200
H          2.09830        0.31230        0.14110
H          1.44060       -0.26850        1.60060
H          1.12570        2.31420       -0.60910
F          3.83850        3.64730        3.24390
F          1.68760        3.75760        3.89050
H          3.11600        2.83210        4.95800
