20
TSA8_9_NH2_OH_CHF2
C          1.72560        0.09780        0.11060
C          1.49430        1.29370        0.70830
N          1.93930       -1.12360        0.80290
H          1.71090        0.05380       -0.97500
O          1.21430        2.36670       -0.06700
C          2.95310        2.29690        5.01630
C          3.05190        2.13550        3.68910
C          2.40450        0.98810        2.97120
O          1.50400        1.49700        2.05450
C          3.60930        3.45640        5.70460
H          2.39110        1.58540        5.61510
H          3.61610        2.85330        3.09930
H          1.86480        0.32420        3.68070
H          3.21800        0.41680        2.47530
H          2.10520       -1.98220        0.25910
H          1.84320       -1.21470        1.82120
H          1.17560        2.32450       -1.03330
F          4.97660        3.41490        5.50000
F          3.10540        4.64560        5.20950
H          3.40670        3.40590        6.79470
