20
TSA8_9_NH2_OH_CHF2
C          2.55310        1.66530        1.71950
C          1.35800        0.71790        1.50160
N          3.78850        1.03470        1.24160
H          2.39590        2.59310        1.12600
O          0.13180        1.36810        1.68810
C          2.62530        2.03070        3.22280
C          2.64260        0.74990        4.06810
C          1.43960       -0.12330        3.68210
O          1.45030       -0.45410        2.30050
C          3.80320        2.95420        3.57190
H          1.69340        2.58270        3.48200
H          3.58310        0.18010        3.91350
H          0.48390        0.37170        3.96370
H          1.49050       -1.06290        4.27070
H          3.71540        0.88420        0.20900
H          3.94070        0.10350        1.69030
H         -0.24440        1.45950        0.77650
F          5.01810        2.34190        3.31860
F          3.72240        4.12510        2.83900
H          3.75970        3.21380        4.65120
