20
TSA8_9_CBr3_CH2F_Cl
C          1.35100       -0.43120        0.07570
C          1.95080       -0.99990        1.15830
C          1.95080       -0.25560       -1.30530
H          0.34840       -0.04320        0.19410
C          3.35600       -1.54440        1.14470
C         -1.61860       -2.43450        3.98190
C         -0.36670       -2.20110        3.57850
C         -0.06040       -1.12100        2.58390
O          1.30470       -1.09340        2.35720
Cl        -1.95160       -3.69820        5.15400
H         -2.44550       -1.84810        3.59090
H          0.44490       -2.80050        3.98380
H         -0.37990       -0.14230        3.00310
H         -0.62890       -1.33500        1.65560
Br         0.66340        0.63150       -2.45500
Br         3.53160        0.87420       -1.26430
Br         2.35360       -1.96810       -2.12650
F          4.11730       -0.86860        2.07970
H          3.86180       -1.46980        0.16790
H          3.32230       -2.61930        1.41910
