20
TSA8_9_CBr3_CH2F_Cl
C          0.65460       -0.88860        0.75780
C          1.92280       -0.61540        1.61770
C          0.86780       -1.10450       -0.77430
H          0.13870        0.09720        0.79310
C          2.92390       -1.76560        1.76190
C         -0.30500       -1.87180        1.49630
C         -0.23100       -1.67040        3.02270
C          0.29770       -0.27570        3.37170
O          1.62910       -0.05690        2.90450
Cl        -0.04370       -3.61220        1.17170
H         -1.33560       -1.64210        1.15190
H          0.49100       -2.38120        3.48020
H          0.30290       -0.18780        4.47830
H         -0.38110        0.51470        2.98490
Br        -0.84500       -1.07800       -1.69160
Br         1.90160        0.37490       -1.49410
Br         1.77480       -2.73510       -1.32900
F          4.00410       -1.33990        2.51270
H          3.31170       -2.07180        0.77610
H          2.46670       -2.63940        2.26590
