19
TSA8_9_CN_NO2_NH2
C          2.71910        1.35830        0.89720
C          1.77610        2.22250        0.04640
C          2.21590       -0.04030        1.02540
H          3.67180        1.31180        0.33090
N          1.50030        1.93640       -1.25790
C          2.99240        2.01530        2.31010
C          2.05340        1.42420        3.33840
C          0.76750        1.76140        3.37680
O          1.32620        3.26520        0.51380
N          4.39980        1.90410        2.71370
H          2.81650        3.11050        2.24130
H          2.40790        0.61850        3.97750
H          0.37870        2.53450        2.72580
H          0.09830        1.24820        4.05410
N          1.82740       -1.12340        1.17330
O          0.87790        2.71330       -1.91650
O          1.93550        0.82780       -1.81260
H          4.53890        1.25010        3.51450
H          4.70800        2.83950        3.08570
