19
TSA8_9_CN_NO2_NH2
C          1.64430        0.06500       -0.03140
C          1.50490        1.42880       -0.05460
C          1.79420       -0.79900        1.11550
H          1.61250       -0.46560       -0.97510
N          1.37340        2.04750       -1.32700
C          3.28310        2.91050        3.25700
C          2.52730        1.81980        3.06590
C          1.22090        1.89420        2.35180
O          1.46940        2.24230        1.03840
N          4.50140        2.82450        3.97400
H          2.95380        3.88020        2.88870
H          2.85470        0.85650        3.43570
H          0.56430        2.64040        2.86080
H          0.65110        0.94750        2.41290
N          1.91940       -1.54060        2.00380
O          1.73780        3.17310       -1.48030
O          0.63900        1.47550       -2.25730
H          4.82550        1.92770        4.36450
H          5.04490        3.67760        4.16400
