19
TSA8_9_CN_NO2_NH2
C          2.77120        1.00770        0.98450
C          1.41260        1.48440        0.39760
C          2.48390       -0.35750        1.44750
H          3.55290        0.93600        0.18920
N          1.48840        1.86440       -0.99290
C          3.16110        2.04180        2.10470
C          2.07580        2.01590        3.18100
C          0.69060        2.04860        2.51340
O          0.78390        2.50180        1.17240
N          4.50820        1.95940        2.69250
H          3.11870        3.03820        1.60730
H          2.15930        1.07610        3.78310
H          0.05270        2.73230        3.10380
H          0.20630        1.04400        2.54370
N          2.22920       -1.41750        1.83660
O          2.18470        2.76780       -1.34500
O          0.73430        1.23980       -1.87040
H          4.49990        1.46590        3.61540
H          4.78360        2.94130        2.95750
