19
TSA8_9_Br_NO2_CBr3
C          3.14750        0.78200       -1.54560
C          1.60100        0.58650       -1.67890
Br         3.54710        1.10490        0.33470
H          3.66640       -0.16680       -1.79450
N          1.30240       -0.58690       -2.47680
C          3.58760        1.91810       -2.50490
C          2.82590        3.21530       -2.15530
C          1.41320        2.91020       -1.63280
O          0.92250        1.72570       -2.21810
C          5.11510        2.15050       -2.68720
H          3.21840        1.59650       -3.50530
H          3.33300        3.85030       -1.39790
H          0.74330        3.76330       -1.86610
H          1.40430        2.81340       -0.52330
O          0.64950       -0.49770       -3.47360
O          1.69060       -1.77390       -2.06320
Br         5.41060        3.46040       -4.09260
Br         6.03910        2.81000       -1.10810
Br         6.00010        0.51930       -3.26050
