23
TSA8_9_Et_Me_Br
C          2.57390       -1.05370        0.77490
C          1.12300       -1.17310        1.36800
C          2.46390       -0.79360       -0.75530
H          3.07810       -0.15820        1.20290
C          0.96790       -0.31150        2.62080
C          3.34620       -2.31730        1.21560
C          2.65780       -3.58330        0.69360
C          1.12740       -3.41920        0.70900
O          0.73610       -2.50800        1.71180
Br         5.26100       -2.34030        0.88680
H          3.27370       -2.34800        2.32530
H          2.97050       -3.86560       -0.33460
H          0.66170       -4.41020        0.88900
H          0.72830       -3.08680       -0.27270
C          3.78680       -0.51480       -1.46420
H          1.83530        0.11460       -0.88830
H          1.96250       -1.62330       -1.28730
H          4.32370        0.32420       -0.97330
H          3.58250       -0.23510       -2.51960
H          4.42440       -1.41690       -1.49240
H          1.65490       -0.66300        3.42010
H         -0.07690       -0.37560        2.99030
H          1.19020        0.75110        2.38620
