26
TSA8_9_CF3_Et_CBr3
C          1.59500       -0.15160       -0.04150
C          1.35010       -1.42220       -0.46620
C          1.84040        1.09940       -0.85390
H          1.58640        0.03100        1.03020
C          1.00960       -2.47970        0.56160
C          3.99850       -2.81260       -4.05550
C          3.00860       -2.82880       -3.15040
C          2.36520       -1.55340       -2.69530
O          1.37940       -1.83580       -1.76600
C          4.68020       -4.07550       -4.51200
H          4.32330       -1.86000       -4.46620
H          2.67530       -3.77410       -2.73270
H          1.90900       -1.04720       -3.57250
H          3.16340       -0.91660       -2.25500
F          3.13500        1.53360       -0.64110
F          1.62150        0.94650       -2.20500
F          0.96960        2.07710       -0.41120
C          2.01980       -3.62260        0.53410
H         -0.00070       -2.88320        0.33920
H          0.98880       -2.06030        1.59170
H          2.02310       -4.11540       -0.45980
H          1.74270       -4.38100        1.29640
H          3.03870       -3.24240        0.75970
Br         6.04630       -3.65170       -5.81990
Br         5.53240       -4.96140       -3.01070
Br         3.40660       -5.28750       -5.33160
