21
TSA8_9_CF3_OMe_I
C          1.82820       -0.09080       -0.07050
C          1.79950        0.54270        1.12620
C          1.71960       -1.56810       -0.36600
H          1.91950        0.53860       -0.95330
O          1.83630        1.89910        1.10730
C          3.23590       -1.12950        5.18870
C          3.32630       -0.54220        3.99130
C          2.59970       -1.06440        2.78650
O          1.73430       -0.08600        2.33480
I          4.28350       -0.33860        6.84150
H          2.62650       -2.01550        5.33530
H          3.94350        0.34370        3.87830
H          2.01810       -1.97560        3.04410
H          3.36050       -1.32000        2.01680
F          2.90410       -2.00510       -0.92780
F          1.42750       -2.33780        0.73780
F          0.70240       -1.75610       -1.28240
C          1.87350        2.67570        2.24600
H          1.88660        3.74610        1.95760
H          2.79310        2.45240        2.82880
H          0.97670        2.48300        2.87340
