21
TSA8_9_CF3_OMe_I
C          2.85170        0.17830        1.57430
C          1.36660        0.08940        2.03280
C          3.03760       -0.67170        0.29840
H          3.11030        1.22650        1.31020
O          0.55940        1.18970        1.66180
C          3.73920       -0.22660        2.77660
C          3.28400       -1.54400        3.41960
C          1.74550       -1.63460        3.47290
O          1.16580       -0.34910        3.37080
I          5.85960       -0.18950        2.45550
H          3.56760        0.55390        3.55120
H          3.69100       -2.45390        2.92960
H          1.43950       -2.12250        4.42090
H          1.35970       -2.29530        2.66040
F          4.32840       -0.56180       -0.18140
F          2.76330       -2.00640        0.53650
F          2.17880       -0.21650       -0.68650
C          0.73410        2.25110        2.57640
H          0.21980        3.14730        2.17350
H          1.80300        2.52980        2.70440
H          0.26330        2.01410        3.55510
