24
TSA8_9_CCl3_OMe_CH2F
C          2.38040       -1.39600        1.78740
C          2.49490        0.03440        2.40050
C          0.91150       -1.84090        1.48120
H          2.88360       -1.38340        0.79630
O          1.87400        1.00940        1.60570
C          3.22860       -2.37140        2.67370
C          4.64280       -1.78160        2.93090
C          4.82070       -0.40150        2.29400
O          3.81000        0.47450        2.74890
C          2.56570       -2.74930        4.01460
H          3.36730       -3.31970        2.11440
H          4.83240       -1.66330        4.02090
H          4.84110       -0.44890        1.18320
H          5.81150        0.00090        2.59710
Cl        -0.19490       -1.65320        2.87340
Cl         0.22320       -0.87120        0.14660
Cl         0.85750       -3.53800        0.92700
C          1.11520        1.82020        2.47080
H          0.53300        2.53880        1.85630
H          1.77630        2.41470        3.13960
H          0.37760        1.22760        3.05630
F          3.38530       -3.60820        4.72830
H          1.61560       -3.29100        3.84060
H          2.37030       -1.84450        4.62680
