25
TSA8_9_NH2_CF3_Et
C          3.16320       -0.87070        0.76240
C          1.94500       -1.17940        1.67110
N          2.76820       -0.00800       -0.35700
H          3.88540       -0.33450        1.41530
C          1.16760        0.03570        2.18150
C          3.78840       -2.21410        0.24700
C          3.29480       -3.37330        1.12850
C          1.74370       -3.41030        1.05420
O          1.10300       -2.13490        1.07260
C          5.33360       -2.21090        0.22320
H          3.40750       -2.43820       -0.77600
H          3.62270       -3.19090        2.17670
H          1.33910       -4.06260        1.85630
H          1.48850       -3.87520        0.07860
H          2.05310       -0.49270       -0.94860
H          3.58630        0.22700       -0.95880
F          0.21510       -0.38370        3.09100
F          2.02950        0.91330        2.81390
F          0.53490        0.68640        1.13810
C          5.94480       -1.15560       -0.69460
H          5.68100       -3.20700       -0.12800
H          5.72360       -2.05310        1.25280
H          5.58330       -1.29240       -1.73550
H          7.05050       -1.25850       -0.68490
H          5.70390       -0.13370       -0.33880
