20
TSA8_9_CF3_I_CF3
C          1.52230       -2.21230       -0.86310
C          1.10020       -1.44920        0.37610
C          1.70500       -1.22360       -2.04140
H          2.52940       -2.63330       -0.65010
I          2.36000       -1.39220        2.06990
C          0.56070       -3.43170       -1.09450
C         -0.88520       -3.01910       -1.29950
C         -1.84590       -3.35990       -0.43390
O          0.03880       -0.84690        0.41410
C          0.98250       -4.37570       -2.24020
H          0.63410       -4.03870       -0.16220
H         -1.15900       -2.43750       -2.17320
H         -1.62360       -3.94400        0.45370
H         -2.87070       -3.05130       -0.61220
F          2.55700       -0.20320       -1.65310
F          2.28610       -1.84640       -3.12800
F          0.50160       -0.66190       -2.42510
F          0.81020       -3.78610       -3.47930
F          2.30520       -4.75180       -2.08960
F          0.19970       -5.51660       -2.20280
