20
TSA8_9_CF3_I_CF3
C          1.52230       -2.42960       -1.04860
C          1.03530       -1.74530        0.24580
C          1.67270       -1.35930       -2.15960
H          2.54760       -2.82120       -0.86940
I          1.49500       -2.79640        2.07300
C          0.56870       -3.63100       -1.33810
C         -0.89450       -3.16790       -1.32590
C         -1.18150       -2.42370       -0.01650
O         -0.31490       -1.31400        0.15870
C          0.87990       -4.44640       -2.60700
H          0.69000       -4.33680       -0.48570
H         -1.11700       -2.51160       -2.19130
H         -1.12600       -3.11720        0.84990
H         -2.22720       -2.05480       -0.04920
F          2.51600       -0.35800       -1.70890
F          2.25130       -1.90160       -3.29050
F          0.46360       -0.78200       -2.49780
F          0.62300       -3.72060       -3.75560
F          2.20410       -4.84630       -2.60070
F          0.08110       -5.57640       -2.62980
