16
TSA8_9_F_NH2_H
C          3.02350        0.39210       -1.50160
C          1.54520        0.32950       -1.81120
F          3.20290        0.35770       -0.12920
H          3.50810       -0.51350       -1.92710
N          1.04440       -0.66810       -2.57810
C          3.78030        1.59800       -2.09990
C          3.39870        2.95370       -1.55710
C          2.26090        3.57730       -1.87480
O          0.78470        1.15910       -1.33790
H          4.84940        1.44210       -1.83740
H          3.71000        1.60170       -3.20940
H          4.10490        3.46800       -0.91140
H          1.54120        3.13360       -2.55280
H          2.05310        4.56200       -1.46870
H          0.03370       -0.71780       -2.77480
H          1.65940       -1.39120       -2.97870
