16
TSA8_9_F_NH2_H
C          2.04020       -0.02090       -0.24270
C          1.53820        0.09920       -1.49070
F          2.47720        1.03850        0.48650
H          2.09040       -0.99870        0.22500
N          1.08320       -1.06690       -2.15680
C          4.14040        2.90270       -3.37680
C          3.58160        2.23460       -2.36170
C          2.14650        2.45470       -1.96230
O          1.42850        1.28600       -2.15300
H          5.17300        2.71270       -3.64960
H          3.57640        3.63460       -3.94720
H          4.17620        1.50420       -1.82110
H          1.69060        3.23900       -2.60150
H          2.06970        2.81860       -0.91860
H          0.71250       -0.99690       -3.11600
H          1.14590       -1.99850       -1.71730
