16
TSA8_9_F_NH2_H
C          3.10140        0.39290       -1.36560
C          1.56580        0.36960       -1.64290
F          3.34640        0.88590       -0.09450
H          3.52240       -0.63500       -1.40430
N          1.24810       -0.71030       -2.57180
C          3.76250        1.30140       -2.39830
C          3.18890        2.72300       -2.28880
C          1.75890        2.71360       -1.71890
O          1.04390        1.59000       -2.18210
H          4.86840        1.32580       -2.29700
H          3.51890        0.89880       -3.40570
H          3.80090        3.37300       -1.62610
H          1.24060        3.64690       -2.01880
H          1.76820        2.71240       -0.60510
H          0.21420       -0.71290       -2.72550
H          1.48490       -1.62090       -2.11490
