19
TSA8_9_NH2_I_Me
C          2.03630        0.01720        0.24110
C          1.24340        0.46990        1.22190
N          2.43650       -1.34200        0.16600
H          2.38220        0.70600       -0.52390
I          0.71360        2.53240        1.20580
C          0.68960       -1.75470        4.78650
C         -0.31170       -1.18570        4.09890
C         -0.06500       -0.01430        3.19580
O          0.80210       -0.37670        2.18730
C          0.46160       -2.92060        5.70190
H          1.70040       -1.36730        4.69090
H         -1.32570       -1.56440        4.19460
H          0.36630        0.81830        3.79350
H         -1.03080        0.31400        2.75400
H          3.04250       -1.65060       -0.60720
H          2.13000       -2.03540        0.86390
H          1.07630       -3.77920        5.36110
H         -0.60530       -3.23080        5.72030
H          0.76820       -2.64210        6.73160
