19
TSA8_9_NH2_I_Me
C          1.63240       -1.03550        2.08710
C          1.13510        0.28360        1.46530
N          1.11270       -2.15550        1.29660
H          2.74510       -1.05980        2.05000
I          2.18150        2.05510        2.10830
C          1.14230       -1.09500        3.55400
C         -0.37750       -0.90110        3.58300
C         -0.72970        0.40830        2.86630
O         -0.27850        0.40660        1.52080
C          1.54130       -2.38440        4.28070
H          1.60810       -0.25130        4.11030
H         -0.88670       -1.74900        3.07400
H         -0.33070        1.28400        3.42220
H         -1.83420        0.51620        2.86710
H          1.40800       -2.03310        0.30030
H          1.55310       -3.04530        1.62170
H          2.64510       -2.50560        4.26340
H          1.06930       -3.27630        3.81870
H          1.21040       -2.33520        5.34020
