20
TSA8_9_H_CCl3_CBr3
C          1.81010        0.25590       -0.04160
C          1.57930        1.53900        0.31510
H          2.10190       -0.50340        0.67100
H          1.70120       -0.09030       -1.06120
C          1.13940        2.59230       -0.68860
C          3.27900        2.78780        4.49350
C          3.35260        2.35660        3.22420
C          2.37540        1.36720        2.66080
O          1.71330        1.96820        1.60470
C          4.25430        3.79360        5.04680
H          2.49450        2.40720        5.14190
H          4.13420        2.73160        2.56850
H          1.62820        1.06400        3.42490
H          2.95100        0.47250        2.35680
Cl         2.34680        3.90200       -0.70320
Cl         0.94370        2.01860       -2.37380
Cl        -0.42040        3.27630       -0.16790
Br         3.83880        4.16550        6.90300
Br         6.06860        3.11270        4.95460
Br         4.14440        5.45810        4.05560
