23
TSA8_9_CCl3_CF3_CBr3
C          1.03840       -1.64700        0.83530
C          2.24840       -2.59320        0.68560
C          1.31030       -0.09910        0.98670
H          0.61810       -1.62400       -0.19790
C          3.70360       -2.32620        1.02330
C         -0.14770       -2.26040        1.70970
C         -0.81490       -3.36330        0.89250
C         -2.05730       -3.23920        0.41050
O          2.02970       -3.69120        0.19430
C          0.11650       -2.82420        3.15630
H         -0.90570       -1.46020        1.82930
H         -0.28260       -4.28480        0.68570
H         -2.64270       -2.34160        0.58220
H         -2.49750       -4.04610       -0.16610
Cl         2.38870        0.45760       -0.32980
Cl        -0.20610        0.82040        0.74630
Cl         1.99510        0.49770        2.51700
F          3.95130       -1.08980        1.56340
F          4.13670       -3.27580        1.92890
F          4.45580       -2.44640       -0.13060
Br         0.72180       -1.54560        4.46790
Br        -1.56030       -3.46820        3.91450
Br         1.33810       -4.33610        3.22010
