23
TSA8_9_CCl3_CF3_CBr3
C          1.41650       -0.48470       -0.17410
C          2.01790       -1.56340        0.41200
C          2.02830        0.57030       -1.08340
H          0.35990       -0.34480        0.01180
C          3.48940       -1.90440        0.26510
C         -1.13210       -3.52790        3.35220
C         -0.42660       -3.64320        2.21500
C         -0.07130       -2.45690        1.36740
O          1.29890       -2.43240        1.18530
C         -1.48670       -4.73230        4.18720
H         -1.46390       -2.54650        3.67850
H         -0.10790       -4.62460        1.87530
H         -0.41770       -1.51080        1.83650
H         -0.56760       -2.58290        0.38180
Cl         2.62550       -0.13040       -2.60790
Cl         0.76750        1.75160       -1.53150
Cl         3.32400        1.49590       -0.28540
F          4.28640       -0.89920        0.77410
F          3.77320       -3.05840        0.97370
F          3.81480       -2.13640       -1.05560
Br        -2.55770       -4.19150        5.70940
Br        -2.51480       -6.01010        3.14970
Br         0.12050       -5.59270        4.84870
