22
TSA8_9_Me_NH2_CHF2
C          1.82550       -1.57350        0.99360
C          2.05610       -1.86150       -0.48760
C          1.70280       -0.05350        1.23800
H          0.83820       -2.04210        1.20450
N          1.16960       -1.42560       -1.41630
C          2.88040       -2.25240        1.94620
C          4.19300       -1.48500        2.09930
C          5.04440       -1.20770        1.10650
O          3.00670       -2.53370       -0.85520
C          2.27790       -2.49700        3.35040
H          3.09350       -3.27280        1.55720
H          4.47540       -1.13730        3.09010
H          4.87710       -1.50800        0.08640
H          5.95440       -0.65750        1.32330
H          2.65170        0.46350        0.98260
H          1.44610        0.17330        2.28900
H          0.89800        0.38870        0.61710
H          0.33240       -0.89120       -1.14800
H          1.31320       -1.64010       -2.41440
F          3.16390       -3.23040        4.12150
F          1.99470       -1.31570        4.01070
H          1.34190       -3.08850        3.26100
