22
TSA8_9_Me_NH2_CHF2
C          1.90940       -1.23660        1.21960
C          2.27560       -1.32200       -0.30340
C          2.16160        0.18570        1.75190
H          0.81640       -1.40900        1.34320
N          1.18900       -1.95680       -1.04320
C          2.68900       -2.34580        1.96750
C          4.20510       -2.19560        1.73100
C          4.49560       -1.65280        0.32220
O          3.47870       -2.04560       -0.56950
C          2.36210       -2.50270        3.46200
H          2.38140       -3.29780        1.47810
H          4.71500       -1.53190        2.46230
H          5.47850       -2.03650       -0.02040
H          4.59480       -0.54520        0.31490
H          3.22880        0.47540        1.71670
H          1.80980        0.28030        2.79850
H          1.58240        0.91600        1.14770
H          0.35460       -1.32780       -1.00920
H          1.47170       -2.03960       -2.04610
F          2.77570       -1.40600        4.19570
F          1.00200       -2.68570        3.63770
H          2.88880       -3.39740        3.85750
