21
TSA8_9_CN_Et_I
C          2.06940        0.76010        1.53460
C          2.61750        2.04880        0.95220
C          2.66650       -0.42150        0.88560
H          1.00700        0.77100        1.22710
C          1.92780        2.64530       -0.25990
C          2.11420        0.67530        3.07830
C          1.10480       -0.34930        3.50970
C         -0.19410       -0.05460        3.37930
O          3.26820        2.80030        1.66430
I          4.02840        0.30680        3.99410
H          1.80200        1.64380        3.52670
H          1.41400       -1.31680        3.89390
H         -0.48950        0.92520        3.00420
H         -0.96270       -0.76550        3.64160
N          3.09910       -1.38250        0.40460
C          0.67540        3.45100        0.11630
H          1.63060        1.84560       -0.97440
H          2.64710        3.31400       -0.77380
H         -0.14470        2.78400        0.46180
H          0.30950        4.00510       -0.77500
H          0.89860        4.18880        0.91560
