21
TSA8_9_CN_Et_I
C          1.67970        0.09660       -0.01210
C          1.66520        1.31150        0.59720
C          1.82590       -1.18370        0.64590
H          1.58860        0.04770       -1.09300
C          1.64090        2.56620       -0.24240
C          2.14980        1.04800        5.06460
C          1.97980        0.35130        3.93640
C          0.99940        0.78930        2.90180
O          1.68320        1.50740        1.94140
I          3.64300        0.48690        6.44070
H          1.56190        1.94080        5.26620
H          2.60960       -0.50450        3.72590
H          0.23840        1.46550        3.35660
H          0.42230       -0.06190        2.49050
N          1.94040       -2.22690        1.13560
C          0.55870        3.54060        0.21900
H          1.50510        2.32890       -1.31880
H          2.61710        3.07970       -0.12250
H         -0.44400        3.07060        0.16260
H          0.58110        4.44780       -0.42280
H          0.75770        3.86110        1.26680
