14
TSA8_9_F_F_Br
C          2.04840       -0.11960        0.06440
C          1.27990       -0.81620        0.90220
F          2.25840       -0.55490       -1.20580
H          2.51290        0.80470        0.39250
F          1.08340       -0.35540        2.16880
C         -0.37710       -5.16050        0.95300
C         -0.61010       -3.91420        0.52760
C         -0.13540       -2.71340        1.29100
O          0.70140       -1.96920        0.48810
Br        -1.00360       -6.65910       -0.05530
H          0.16830       -5.34540        1.87330
H         -1.15970       -3.75840       -0.39560
H          0.40540       -3.01480        2.21660
H         -1.01990       -2.10310        1.57770
