14
TSA8_9_F_F_Br
C          1.53700       -2.31770        0.03360
C          1.10040       -1.15010        0.92830
F          1.04790       -2.10670       -1.24540
H          2.64550       -2.36510       -0.01750
F          1.69560       -1.20070        2.18060
C          0.97290       -3.62220        0.60680
C         -0.54030       -3.48490        0.77390
C         -0.83420       -2.24630        1.63080
O         -0.31320       -1.06980        1.03110
Br         1.39550       -5.13080       -0.53740
H          1.42610       -3.81240        1.60460
H         -1.02600       -3.36570       -0.21960
H         -0.44310       -2.37340        2.66510
H         -1.93520       -2.13870        1.72000
