24
TSA8_9_CF3_CHF2_OMe
C          2.67630        1.66100        0.05590
C          1.37660        2.17630       -0.53590
C          2.40450        0.42880        0.94640
H          3.31550        1.28770       -0.77650
C          1.14230        2.11650       -2.01940
C          3.49980        2.81260        0.71460
C          2.83160        3.51690        1.88130
C          2.67270        2.96030        3.08520
O          0.51100        2.63640        0.19500
O          3.74800        3.77660       -0.29910
H          4.45430        2.36040        1.08190
H          2.50700        4.54540        1.74990
H          2.20660        3.52740        3.88440
H          3.02070        1.95650        3.29730
F          3.58630       -0.02940        1.50090
F          1.49910        0.70600        1.95360
F          1.87020       -0.58300        0.16790
F         -0.10720        2.61970       -2.33800
F          2.10700        2.85830       -2.67520
H          1.19980        1.06130       -2.35880
C          5.04010        4.32870       -0.16430
H          5.14080        5.16610       -0.88480
H          5.81800        3.57490       -0.41580
H          5.19950        4.75360        0.85200
