24
TSA8_9_CF3_CHF2_OMe
C          1.79440        0.13380       -0.03880
C          1.43210        1.43790       -0.07440
C          1.93040       -0.72040        1.20040
H          1.99480       -0.37710       -0.97640
C          1.26540        2.13170       -1.40460
C          4.08780        3.97630        0.93520
C          2.77760        3.90090        1.19420
C          2.16240        2.70100        1.85880
O          1.17850        2.13750        1.06300
O          4.59080        5.08540        0.34580
H          4.74690        3.15220        1.19940
H          2.13110        4.73160        0.92550
H          1.69240        3.04870        2.80180
H          2.93140        1.94190        2.12060
F          3.23970       -1.14730        1.31240
F          1.56950       -0.06460        2.36150
F          1.11210       -1.82600        1.06490
F         -0.03070        2.59870       -1.51670
F          2.14010        3.19670       -1.50510
H          1.46330        1.44520       -2.25560
C          5.92940        5.22070        0.05650
H          6.10310        6.21290       -0.40840
H          6.24860        4.42930       -0.65520
H          6.53150        5.15140        0.98800
