19
TSA8_9_CN_OMe_Br
C          2.75130        1.13920       -0.19400
C          1.41120        1.24390       -0.95680
C          2.43860        0.56130        1.12620
H          3.46160        0.45960       -0.71050
O          1.32750        0.39450       -2.09020
C          3.34220        2.55820       -0.09680
C          2.35100        3.47780        0.61450
C          0.92700        3.27180        0.05810
O          0.93670        2.57250       -1.17710
Br         5.09820        2.66470        0.72040
H          3.47120        2.94330       -1.13350
H          2.33730        3.27700        1.71170
H          0.48910        4.27880       -0.09110
H          0.27590        2.74680        0.79600
N          2.17190        0.13200        2.16880
C          1.74570        1.05470       -3.26600
H          1.87830        0.29440       -4.06500
H          2.72660        1.56610       -3.14770
H          0.95650        1.75450       -3.61660
