18
TSA8_9_CBr3_F_OH
C          1.53740       -1.71290       -0.40970
C          0.83340       -0.94260        0.68870
C          1.47750       -0.93730       -1.76980
H          2.61470       -1.74420       -0.13190
F          1.55300       -0.45400        1.73200
C          1.06870       -3.20440       -0.39390
C         -0.39430       -3.41430       -0.71590
C         -1.24800       -3.91800        0.18100
O         -0.37310       -0.75560        0.65710
O          1.84640       -3.97080       -1.27370
H          1.27220       -3.56050        0.64600
H         -0.76860       -3.17260       -1.70210
H         -0.92200       -4.18610        1.18160
H         -2.29000       -4.06500       -0.08450
Br         2.30400        0.80950       -1.54410
Br         2.50080       -1.81070       -3.17190
Br        -0.31020       -0.59980       -2.46120
H          1.77400       -4.91660       -0.97920
