18
TSA8_9_CBr3_F_OH
C          1.50140       -2.13190       -0.74450
C          1.24560       -1.68060        0.71020
C          1.42230       -0.91400       -1.72910
H          2.55300       -2.48730       -0.81880
F          1.71200       -2.60470        1.63520
C          0.58780       -3.36310       -1.00900
C         -0.86930       -3.07280       -0.64520
C         -0.92430       -2.53030        0.78930
O         -0.12110       -1.36940        0.93950
O          0.69230       -3.82040       -2.32960
H          0.94060       -4.16930       -0.32170
H         -1.32640       -2.35890       -1.35370
H         -0.62730       -3.31510        1.52030
H         -1.97680       -2.26840        1.02360
Br        -0.26380        0.05560       -1.79150
Br         2.76480        0.39450       -1.21080
Br         1.87730       -1.41470       -3.55090
H          0.34480       -4.75050       -2.34060
