22
TSA8_9_OH_OMe_CHF2
C          3.22250       -1.12010       -0.18570
C          1.84660       -1.19760        0.54180
O          3.06520       -0.42960       -1.39750
H          3.97440       -0.59020        0.44460
O          1.84050       -0.63130        1.83940
C          3.70720       -2.55810       -0.46440
C          2.63890       -3.34290       -1.25560
C          1.21600       -2.91180       -0.85660
O          1.19300       -2.46350        0.48100
C          5.08040       -2.62820       -1.14930
H          3.80400       -3.05990        0.52310
H          2.72440       -3.23580       -2.35850
H          0.51830       -3.76340       -0.99390
H          0.84810       -2.10380       -1.53340
H          2.93970        0.52720       -1.16430
C          2.39800       -1.52380        2.77930
H          2.48510       -0.99310        3.74950
H          3.42660       -1.83670        2.50140
H          1.73230       -2.39830        2.94520
F          5.04520       -2.03330       -2.39890
F          6.03390       -1.99360       -0.37270
H          5.38050       -3.69070       -1.27200
