19
TSA8_9_Me_H_NH2
C          1.87580        0.06660        0.04570
C          1.25440        1.24190        0.21040
C          2.00180       -0.96380        1.13180
H          2.30790       -0.16250       -0.92400
H          1.19940        1.92600       -0.63350
C         -0.17590        3.90460        3.74320
C         -0.49650        2.85230        2.97670
C         -0.03480        2.74220        1.55200
O          0.69580        1.58520        1.39590
N         -0.62640        3.99360        5.08430
H          0.43410        4.70920        3.34210
H         -1.11140        2.05420        3.38330
H          0.58660        3.62020        1.26520
H         -0.92780        2.70720        0.89150
H          1.52600       -0.64110        2.08140
H          3.07600       -1.16390        1.32390
H          1.51440       -1.90300        0.79660
H         -1.20560        3.25180        5.50320
H         -0.37470        4.81420        5.65350
