21
TSA8_9_CF3_OH_CBr3
C          2.80470       -1.07760       -0.78490
C          1.43760       -1.43590       -0.21990
C          2.91310        0.46210       -0.90310
H          3.54710       -1.38030       -0.01740
O          1.32560       -2.03380        0.98600
C          3.08760       -1.94040       -2.07430
C          2.08640       -1.66300       -3.18380
C          1.21180       -2.58480       -3.60020
O          0.42120       -1.17530       -0.84600
C          4.53760       -1.90490       -2.65400
H          2.95410       -2.99040       -1.72410
H          2.07520       -0.69190       -3.66630
H          1.18070       -3.57390       -3.15480
H          0.51560       -2.34770       -4.39810
F          4.20620        0.84930       -1.17950
F          2.06220        0.96060       -1.87220
F          2.57230        1.03800        0.30950
H          2.09820       -2.25740        1.52310
Br         4.74440       -3.35680       -3.93310
Br         5.00480       -0.28800       -3.63550
Br         5.87810       -2.21470       -1.28120
