21
TSA8_9_CF3_OH_CBr3
C          1.84230       -0.19730        0.02600
C          1.51070       -1.52540       -0.00270
C          2.01150        0.88480       -1.02070
H          2.02010        0.20960        1.01850
O          1.41970       -2.16330        1.18870
C          3.63370       -2.98720       -3.42010
C          2.95530       -2.06550       -2.71720
C          1.47810       -2.19900       -2.44150
O          1.25650       -2.31950       -1.08760
C          5.11360       -2.85940       -3.67220
H          3.10900       -3.85370       -3.81310
H          3.48780       -1.20740       -2.32160
H          1.09130       -3.12370       -2.91990
H          0.86850       -1.39080       -2.87870
F          3.31290        1.34700       -0.96670
F          1.73760        0.52930       -2.31250
F          1.16580        1.92910       -0.69450
H          1.57820       -1.73600        2.04330
Br         5.74310       -4.37670       -4.70070
Br         5.49990       -1.24270       -4.67220
Br         6.08650       -2.82050       -1.99340
