21
TSA8_9_CF3_OH_CBr3
C          2.94310       -1.27740       -0.93960
C          1.52510       -1.72610       -0.47120
C          2.91520        0.24590       -1.18380
H          3.65720       -1.45040       -0.10480
O          1.50470       -2.01990        0.89410
C          3.38340       -2.18720       -2.13690
C          2.26950       -2.29620       -3.20200
C          0.87750       -2.36370       -2.55410
O          0.98440       -2.80310       -1.21670
C          4.78600       -1.97160       -2.77470
H          3.43580       -3.19820       -1.67110
H          2.26920       -1.49450       -3.96990
H          0.23180       -3.05050       -3.13850
H          0.37210       -1.36850       -2.59870
F          4.18960        0.73200       -1.39160
F          2.11630        0.56480       -2.26690
F          2.41270        0.88440       -0.06290
H          0.88980       -1.35030        1.28630
Br         5.21120       -3.49280       -3.90880
Br         4.92550       -0.40140       -3.91880
Br         6.17700       -1.89200       -1.42110
