15
TSA8_9_CN_Br_H
C          1.99510       -1.65320       -0.43400
C          2.61740       -1.60070        0.93830
C          2.46230       -0.56370       -1.31750
H          0.94370       -1.43310       -0.18130
Br         2.06870       -0.16970        2.08740
C          2.07980       -3.01220       -1.15620
C          0.82080       -3.12760       -1.97180
C         -0.34440       -3.27170       -1.32000
O          3.22260       -2.55200        1.40700
H          3.00510       -3.09130       -1.77980
H          2.08750       -3.88050       -0.45930
H          0.84370       -3.04820       -3.05270
H         -0.35030       -3.35500       -0.23100
H         -1.28920       -3.29670       -1.84100
N          2.77600        0.26870       -2.05980
