15
TSA8_9_CN_Br_H
C          2.41870       -1.49880       -0.57380
C          1.34510       -1.44100        0.54100
C          1.99530       -0.61160       -1.67960
H          3.41040       -1.15700       -0.19490
Br         1.88820       -0.44280        2.12170
C          2.50890       -2.92840       -1.11720
C          1.09150       -3.44130       -1.41100
C          0.19900       -3.27670       -0.15690
O          0.91560       -2.73280        0.93270
H          3.16070       -2.98600       -2.01000
H          2.94950       -3.58560       -0.33440
H          0.64560       -2.85870       -2.25020
H         -0.17650       -4.28150        0.12370
H         -0.69770       -2.65260       -0.37620
N          1.66150        0.11540       -2.52870
