19
TSA8_9_CN_CCl3_CN
C          2.86350       -0.89030       -1.17440
C          1.56570       -1.60670       -0.73370
C          2.53070        0.55150       -1.19440
H          3.70370       -1.01120       -0.46430
C          1.52280       -2.41150        0.59700
C          3.22690       -1.48550       -2.55960
C          2.13380       -1.12150       -3.54880
C          0.74740       -1.37820       -2.94040
O          0.79590       -2.20300       -1.78460
C          4.53720       -1.19370       -3.15510
H          3.23260       -2.59080       -2.43660
H          2.20790       -0.04210       -3.83530
H          0.17690       -1.90190       -3.73330
H          0.21330       -0.42870       -2.71800
N          2.24980        1.67300       -1.22600
Cl         3.05700       -2.45680        1.51660
Cl         0.30120       -1.66560        1.65110
Cl         1.04380       -4.10810        0.31420
N          5.54600       -1.01890       -3.69570
