23
TSA8_9_I_Et_CH2F
C          3.16830       -1.48160       -0.57570
C          1.72010       -1.58280       -0.14720
I          3.81650        0.56380       -0.36970
H          3.78550       -2.06730        0.13820
C          1.31850       -2.40890        1.04840
C          3.39130       -2.07000       -1.99440
C          2.66840       -1.26970       -3.05890
C          1.71390       -1.80670       -3.82480
O          0.86030       -0.96830       -0.76050
C          4.88650       -2.13870       -2.33700
H          3.01510       -3.11870       -1.98300
H          2.93270       -0.22800       -3.21190
H          1.41670       -2.84400       -3.71040
H          1.22130       -1.20070       -4.57830
C          1.63850       -3.88910        0.85000
H          0.22390       -2.31010        1.22020
H          1.84760       -2.02980        1.94880
H          1.10080       -4.28240       -0.03860
H          1.31390       -4.46020        1.74540
H          2.72840       -4.04880        0.71500
F          5.06500       -2.74420       -3.56870
H          5.42160       -2.74150       -1.57240
H          5.33880       -1.12560       -2.36890
