19
TSA8_9_CHF2_OH_OH
C          1.91880       -0.09640        0.01090
C          1.24550       -1.21660        0.34340
C          2.16090        0.39030       -1.39750
H          2.32360        0.52130        0.80770
O          1.08670       -1.54500        1.64920
C         -1.15300       -4.92970       -1.63060
C         -0.40970       -3.81460       -1.63180
C         -0.03000       -3.14270       -0.34620
O          0.72290       -2.01950       -0.61700
O         -1.49550       -5.54550       -2.78390
H         -1.49190       -5.35600       -0.69090
H         -0.07390       -3.39130       -2.57520
H          0.56060       -3.85180        0.27390
H         -0.95150       -2.84780        0.20300
F          3.52210        0.48220       -1.61690
F          1.60820       -0.43350       -2.36160
H          1.71310        1.40020       -1.50410
H          1.44230       -1.00720        2.37160
H         -1.21840       -5.21510       -3.65090
