19
TSA8_9_CHF2_OH_OH
C          0.42940       -1.26750       -1.06140
C          1.02870       -1.52140        0.33660
C          1.53390       -0.76990       -2.02190
H         -0.31230       -0.44150       -0.99510
O          0.04420       -1.61510        1.32780
C         -0.30570       -2.55250       -1.51620
C          0.61250       -3.77380       -1.39550
C          1.17700       -3.83310        0.02970
O          1.89210       -2.65050        0.35810
O         -0.79090       -2.41700       -2.82550
H         -1.16650       -2.70170       -0.82220
H          1.43920       -3.73060       -2.13250
H          1.87060       -4.69700        0.09450
H          0.36730       -4.02670        0.76870
F          2.57030       -1.67420       -2.16120
F          1.00530       -0.48730       -3.26840
H          1.96180        0.17140       -1.61510
H          0.26430       -0.89100        1.96670
H         -1.41390       -3.17470       -2.97850
