17
TSA8_9_CN_H_NO2
C          2.77650       -1.49270        0.53520
C          1.87250       -0.83130        1.58150
C          2.20020       -1.20810       -0.82600
H          3.73460       -0.92610        0.61190
H          1.54320        0.19970        1.48380
C          2.88840       -3.05010        0.80670
C          1.70540       -3.67880        0.11590
C          0.49030       -3.59890        0.63640
O          1.56670       -1.40460        2.61950
N          4.10110       -3.73470        0.37950
H          2.84500       -3.22710        1.90310
H          1.80600       -3.95830       -0.93330
H          0.34710       -3.22780        1.64070
H         -0.35940       -3.85610        0.02460
N          1.71450       -1.01760       -1.84280
O          4.37990       -3.83840       -0.77610
O          4.75390       -4.46940        1.26050
