17
TSA8_9_CN_H_NO2
C          1.63260        0.00840        0.09590
C          1.60790       -0.49850        1.35320
C          1.74040       -0.72850       -1.14620
H          1.55390        1.08100       -0.01610
H          1.54160        0.21630        2.16640
C          3.11980       -4.39380        1.29330
C          2.30940       -3.71490        0.46460
C          1.17670       -2.88330        0.98030
O          1.66510       -1.81540        1.70440
N          4.19870       -5.18730        0.81070
H          2.94200       -4.35130        2.36510
H          2.45300       -3.76230       -0.60960
H          0.51110       -3.49760        1.62540
H          0.55120       -2.53270        0.13990
N          1.82440       -1.27680       -2.16310
O          4.45860       -5.23190       -0.35440
O          4.92750       -5.87520        1.66180
