17
TSA8_9_CN_H_NO2
C          2.82170       -1.63420        0.49520
C          1.61210       -1.03030        1.25190
C          2.50880       -1.59000       -0.95440
H          3.72420       -1.00580        0.66100
H          1.98890       -0.32450        2.01870
C          3.03870       -3.07630        1.00900
C          1.77780       -3.90900        0.75590
C          0.51910       -3.08590        1.07190
O          0.81650       -2.00350        1.93200
N          4.21400       -3.74390        0.47870
H          3.15830       -3.00880        2.11460
H          1.70300       -4.27460       -0.29260
H         -0.21600       -3.76180        1.55760
H          0.03950       -2.70680        0.14180
N          2.25630       -1.56310       -2.07240
O          4.36080       -3.88040       -0.69800
O          5.02660       -4.36400        1.30720
