21
TSA8_9_OMe_CF3_I
C          0.83530       -0.76240       -1.23570
C          1.61460       -1.42680       -0.11800
O          1.71380        0.03010       -2.01820
H         -0.00290       -0.15710       -0.81110
C          1.22820       -1.21320        1.32070
C          0.18770       -1.81900       -2.15180
C         -0.78970       -2.67920       -1.39030
C         -0.63920       -4.00280       -1.28810
O          2.56510       -2.14570       -0.39080
I         -0.88290       -0.86560       -3.74570
H          0.98690       -2.44140       -2.61350
H         -1.64180       -2.20720       -0.90950
H          0.19960       -4.51140       -1.75310
H         -1.36320       -4.58820       -0.73090
C          1.83110        1.32860       -1.47850
H          2.51050        1.91570       -2.12950
H          2.29030        1.30430       -0.46720
H          0.85230        1.85730       -1.47450
F         -0.06580       -1.65470        1.52460
F          2.07690       -1.91420        2.15980
F          1.30220        0.13120        1.63230
