21
TSA8_9_OMe_CF3_I
C          1.01080       -0.89080       -1.29160
C          1.60250       -1.87450       -0.23420
O          1.95520        0.13920       -1.53830
H          0.01310       -0.51760       -0.94860
C          1.59190       -1.34150        1.20220
C          0.76930       -1.70420       -2.56910
C         -0.22490       -2.84620       -2.28700
C         -0.19550       -3.26910       -0.80830
O          1.12040       -3.21960       -0.30130
I          0.08060       -0.53120       -4.22800
H          1.74150       -2.15570       -2.86590
H         -1.27620       -2.56590       -2.51470
H         -0.60330       -4.29680       -0.71240
H         -0.85670       -2.61570       -0.19570
C          1.39390        1.41260       -1.30190
H          0.63020        1.65800       -2.07010
H          2.20140        2.16940       -1.37680
H          0.97190        1.49460       -0.27590
F          0.29240       -1.16920        1.64240
F          2.23160       -2.24530        2.03020
F          2.26120       -0.13440        1.27230
