20
TSA8_9_CCl3_CHF2_Br
C          1.71370       -1.67520        0.58410
C          0.76850       -0.60160        1.18540
C          1.62260       -1.62010       -0.98380
H          2.76540       -1.39440        0.81440
C          1.20290        0.05100        2.51090
C          1.41820       -3.02100        1.31660
C         -0.06980       -3.35450        1.29900
C         -0.86450       -2.16210        1.84700
O         -0.60700       -0.96570        1.12800
Br         2.46500       -4.56140        0.76630
H          1.69240       -2.88830        2.38330
H         -0.40910       -3.62570        0.28290
H         -0.67890       -2.02350        2.93090
H         -1.94430       -2.40140        1.75710
Cl         0.01300       -1.97610       -1.67090
Cl         2.04430        0.03040       -1.52850
Cl         2.80690       -2.68540       -1.78430
F          0.33040        1.07560        2.82670
F          1.25140       -0.84380        3.56190
H          2.21620        0.48390        2.37940
