18
TSA8_9_CN_I_Me
C          1.65680       -0.04450       -0.07020
C          1.51220        0.26520       -1.38680
C          1.82960        0.86230        1.04090
H          1.57140       -1.08670        0.20570
I          1.32870       -1.35930       -2.70520
C          3.65900        4.02640       -1.44100
C          2.94750        3.00000       -0.96470
C          1.52380        2.74460       -1.37400
O          1.43300        1.50400       -1.96380
C          5.05900        4.27750       -0.96120
H          3.22530        4.70390       -2.16740
H          3.41750        2.33400       -0.25330
H          1.16740        3.52100       -2.09820
H          0.84190        2.80030       -0.49860
N          1.96770        1.60110        1.92160
H          5.71370        3.40950       -1.18210
H          5.05390        4.45870        0.13630
H          5.47590        5.17790       -1.45850
