22
TSA8_9_NO2_CHF2_CCl3
C          2.38500       -1.05330       -1.78700
C          1.60540       -1.41880       -0.53850
N          2.51600        0.39300       -1.87640
H          3.40020       -1.49160       -1.66630
C          2.25980       -2.22740        0.54760
C          1.75700       -1.70130       -3.06910
C          0.35220       -1.18970       -3.34540
C         -0.71790       -1.98930       -3.29250
O          0.44690       -1.05190       -0.40430
C          2.63940       -1.55800       -4.34640
H          1.70540       -2.79450       -2.85800
H          0.19950       -0.14800       -3.60540
H         -0.62390       -3.04110       -3.04240
H         -1.70390       -1.58730       -3.50220
O          3.59850        0.89500       -1.82390
O          1.45320        1.16670       -1.93990
F          1.38370       -2.44000        1.59770
F          2.66030       -3.44980        0.04010
H          3.14870       -1.68160        0.92760
Cl         1.90930       -2.47100       -5.69870
Cl         2.83020        0.13520       -4.88720
Cl         4.26700       -2.24920       -4.09110
