22
TSA8_9_NO2_CHF2_CCl3
C          2.39940       -1.10410       -1.96870
C          1.38460       -1.48440       -0.84390
N          2.44630        0.34230       -2.09800
H          3.41490       -1.46940       -1.69290
C          2.05740       -2.10800        0.37810
C          1.99640       -1.81880       -3.29090
C          0.50360       -1.58800       -3.60930
C         -0.35050       -1.62510       -2.32990
O          0.33090       -2.31950       -1.30580
C          2.92030       -1.57260       -4.51460
H          2.08070       -2.90530       -3.05730
H          0.28110       -0.65300       -4.16600
H         -1.32100       -2.11500       -2.55050
H         -0.60810       -0.59370       -1.99140
O          3.47080        0.92480       -1.90240
O          1.36280        1.02980       -2.38960
F          1.11750       -2.31990        1.36940
F          2.63820       -3.31700        0.03660
H          2.83910       -1.42310        0.76850
Cl         2.42270       -2.62390       -5.86970
Cl         2.87830        0.11490       -5.09910
Cl         4.61310       -1.98770       -4.12600
