17
TSA8_9_H_CHF2_H
C          2.94500        1.59190        1.06550
C          1.39670        1.39840        1.00870
H          3.43580        0.59450        1.08300
H          3.32120        2.12740        0.16730
C          0.70740        2.52760        0.23600
C          3.31230        2.31060        2.36240
C          2.83020        1.48740        3.56770
C          1.62210        0.60670        3.20090
O          0.77850        1.28190        2.29390
H          4.40330        2.50250        2.44380
H          2.79510        3.29180        2.37460
H          3.62170        0.81100        3.95730
H          1.06420        0.34100        4.12230
H          1.95570       -0.35800        2.75180
F         -0.64520        2.25650        0.13500
F          0.87650        3.74260        0.87430
H          1.12770        2.59180       -0.78880
