23
TSA8_9_CHF2_CHF2_CF3
C          2.51880       -0.05800       -1.73950
C          1.45670       -0.94800       -1.11680
C          2.66250        1.22550       -0.88800
H          3.48680       -0.60050       -1.65460
C          1.83270       -2.29220       -0.55810
C          2.23430        0.12780       -3.27150
C          0.93560        0.86040       -3.54910
C         -0.09170        0.27340       -4.17130
O          0.29420       -0.57320       -1.05830
C          3.37690        0.80730       -4.05630
H          2.16760       -0.90570       -3.68460
H          0.83100        1.89710       -3.24680
H         -0.03650       -0.76000       -4.49840
H         -1.00270        0.83300       -4.35670
F          3.74620        1.98350       -1.28240
F          1.51700        1.99970       -0.91720
H          2.84820        0.93220        0.16800
F          0.72490       -2.93110       -0.02870
F          2.37020       -3.07870       -1.56030
H          2.58700       -2.15900        0.24540
F          3.10930        0.72650       -5.41230
F          4.57550        0.16080       -3.81290
F          3.50280        2.14420       -3.72880
