15
TSA8_9_H_CN_Cl
C          2.15450       -1.37970        0.27920
C          1.86640       -0.88980        1.67310
H          3.24940       -1.26760        0.12600
H          1.63820       -0.75060       -0.48110
C          1.03340        0.26320        1.89270
C          1.77790       -2.86000        0.05860
C          0.28520       -3.11130        0.01900
C         -0.52510       -2.92090        1.06440
O          2.41730       -1.41590        2.62610
Cl         2.47130       -3.38070       -1.50440
H          2.24570       -3.49120        0.84550
H         -0.15890       -3.48510       -0.90010
H         -0.15540       -2.56920        2.01910
H         -1.58560       -3.13180        0.96500
N          0.35970        1.18780        2.06100
