21
TSA8_9_H_OMe_CH2F
C          2.54910       -0.44300       -1.74470
C          1.88030       -1.76620       -1.99510
H          1.78670        0.24840       -1.32310
H          3.35890       -0.56520       -0.99130
O          2.34190       -2.88070       -1.37300
C          3.13230        0.15940       -3.03930
C          3.67730        1.53730       -2.74850
C          3.19520        2.62910       -3.35090
O          0.92560       -1.82610       -2.75830
C          4.25220       -0.72230       -3.61480
H          2.31700        0.23100       -3.79470
H          4.48500        1.64760       -2.02890
H          2.38880        2.56230       -4.07540
H          3.60880        3.60510       -3.11990
C          1.80170       -4.13530       -1.55930
H          2.36110       -4.86970       -0.94440
H          1.88060       -4.42980       -2.62820
H          0.73540       -4.14340       -1.24720
F          4.74020       -0.16860       -4.78560
H          3.86870       -1.73820       -3.84560
H          5.08620       -0.81840       -2.88590
