23
TSA8_9_Me_CCl3_CCl3
C          2.59950       -1.35220        1.08770
C          1.29620       -0.64040        1.60120
C          2.57220       -1.37760       -0.44820
H          3.48790       -0.75060        1.37290
C          1.55600        0.64600        2.40730
C          2.70660       -2.75180        1.76540
C          1.41130       -3.56310        1.53900
C          0.17530       -2.65200        1.55550
O          0.43560       -1.50730        2.33580
C          3.98740       -3.59240        1.49770
H          2.73250       -2.51860        2.85420
H          1.39330       -4.15430        0.59910
H         -0.69100       -3.21190        1.96380
H         -0.12130       -2.35390        0.52270
H          1.73620       -1.99360       -0.83640
H          3.52710       -1.75900       -0.85520
H          2.45410       -0.34370       -0.83670
Cl         2.45600        0.29330        3.90820
Cl         2.47310        1.83200        1.43950
Cl         0.00210        1.40050        2.84590
Cl         4.01370       -4.99990        2.59710
Cl         4.09870       -4.23340       -0.16640
Cl         5.45650       -2.63760        1.83850
