18
TSA8_9_I_OMe_H
C          3.23660       -0.60760        1.00200
C          1.79870       -0.52150        1.58160
I          3.12480       -1.05860       -1.09080
H          3.75950        0.36930        1.08630
O          1.42940        0.77180        2.02110
C          4.02190       -1.68110        1.76240
C          3.26070       -3.01470        1.79720
C          1.74030       -2.79140        1.89830
O          1.46040       -1.54970        2.50920
H          5.05170       -1.81600        1.36910
H          4.11130       -1.33330        2.81390
H          3.46290       -3.65940        0.91550
H          1.28160       -3.62120        2.47490
H          1.27180       -2.83150        0.88570
C          1.93530        1.02100        3.31510
H          1.85290        2.10810        3.51790
H          3.01320        0.76600        3.40950
H          1.32820        0.49000        4.08000
