16
TSA8_9_F_Br_NO2
C          1.18260        1.05710        1.25510
C          1.49610        1.45470       -0.19890
F          2.29320        0.46820        1.83180
H          0.35110        0.31880        1.24890
Br         0.68940        0.32080       -1.55570
C          0.75100        2.29380        2.05440
C         -0.38330        2.96470        1.27670
C          0.10180        3.34940       -0.13760
O          1.38380        2.83880       -0.47720
N          0.32420        1.93230        3.39330
H          1.60480        3.00690        2.12160
H         -1.23090        2.24860        1.19050
H          0.19420        4.45490       -0.13880
H         -0.65410        3.09390       -0.91180
O         -0.58940        1.18050        3.55950
O          0.94580        2.43580        4.43750
