21
TSA8_9_Me_OMe_H
C          2.90010       -0.24900       -1.12720
C          2.06840       -1.48760       -0.88690
C          2.15040        0.99820       -0.63960
H          3.81700       -0.35130       -0.50450
O          2.56010       -2.45960       -0.07640
C          3.40010       -0.07910       -2.58640
C          2.34880        0.20480       -3.63430
C          1.49140       -0.71420       -4.08550
O          0.94910       -1.59050       -1.36900
H          4.08270        0.79900       -2.57870
H          4.00730       -0.95690       -2.89730
H          2.31650        1.19810       -4.07320
H          1.50680       -1.73380       -3.72080
H          0.77290       -0.44930       -4.85470
H          1.22030        1.15580       -1.22710
H          2.79350        1.89800       -0.74300
H          1.87900        0.88650        0.43200
C          1.88440       -3.62170        0.22890
H          2.50760       -4.23660        0.91030
H          1.68580       -4.20270       -0.69720
H          0.92510       -3.38500        0.73710
