21
TSA8_9_Me_OMe_H
C          1.91720        0.02080       -0.01460
C          1.89380       -1.24180       -0.51450
C          1.74960        1.35610       -0.68990
H          2.07290        0.10640        1.05810
O          2.06420       -2.23630        0.39460
C          3.85270       -0.78110       -4.31940
C          3.12380       -0.38180       -3.27280
C          1.74120       -0.92480       -3.01380
O          1.71560       -1.61660       -1.82150
H          4.84790       -0.37700       -4.47250
H          3.47160       -1.51160       -5.02660
H          3.55250        0.34420       -2.59080
H          1.46940       -1.64460       -3.81540
H          0.95340       -0.15060       -3.04670
H          1.57840        1.34440       -1.76790
H          2.66210        1.96050       -0.50720
H          0.88780        1.88040       -0.22760
C          2.15200       -3.57140        0.05930
H          2.28250       -4.17080        0.98280
H          3.02890       -3.73800       -0.60240
H          1.22480       -3.90060       -0.45670
