24
TSA8_9_Br_OMe_Et
C          1.55610        0.18230       -0.10580
C          1.66600       -1.14280       -0.31520
Br         1.41620        1.51460       -1.48170
H          1.50240        0.54640        0.91600
O          1.69050       -1.95920        0.76840
C          4.36670       -2.33340       -3.91830
C          3.43940       -2.44030       -2.95840
C          2.54600       -1.29450       -2.59500
O          1.73430       -1.70230       -1.55520
C          5.28030       -3.48210       -4.25180
H          4.47180       -1.40220       -4.46840
H          3.33680       -3.37450       -2.41240
H          1.92180       -1.00380       -3.46620
H          3.19330       -0.44380       -2.29360
C          1.88690       -3.32040        0.67800
H          1.86750       -3.76250        1.69590
H          2.87490       -3.53300        0.21820
H          1.08460       -3.78690        0.06690
C          6.15650       -3.86510       -3.05760
H          5.94120       -3.18330       -5.09270
H          4.67620       -4.35900       -4.57030
H          6.77320       -2.99680       -2.74100
H          6.83170       -4.69870       -3.34200
H          5.53670       -4.19890       -2.19870
