20
TSA8_9_Cl_Et_Cl
C          2.98590        0.32420       -1.24290
C          1.54750       -0.00520       -1.57940
Cl         3.13910        0.52000        0.53040
H          3.60460       -0.55510       -1.52390
C          1.19130       -1.29430       -2.27590
C          3.58390        1.53860       -2.00430
C          2.97290        2.88480       -1.67750
C          1.76060        3.25960       -2.09510
O          0.64830        0.74530       -1.23310
Cl         5.33510        1.62200       -1.63960
H          3.51250        1.36900       -3.10080
H          3.55840        3.60750       -1.11520
H          1.14290        2.60940       -2.70280
H          1.38550        4.24730       -1.84640
C          1.79310       -1.36130       -3.67770
H          0.08610       -1.37770       -2.36770
H          1.55600       -2.15130       -1.67020
H          1.41880       -0.51750       -4.29580
H          1.49780       -2.31630       -4.16150
H          2.90150       -1.31910       -3.63870
