20
TSA8_9_Cl_Et_Cl
C          2.97400        0.51580       -1.23360
C          1.47220        0.37430       -1.64050
Cl         3.06760        1.12350        0.44770
H          3.48130       -0.47300       -1.23200
C          1.12130       -0.99900       -2.23470
C          3.66800        1.47640       -2.21060
C          2.94850        2.83490       -2.24640
C          1.43610        2.66200       -2.02430
O          1.01160        1.40800       -2.51200
Cl         5.40740        1.68010       -1.86410
H          3.58270        1.03160       -3.22460
H          3.32000        3.55300       -1.48320
H          0.89030        3.48250       -2.53390
H          1.17910        2.75330       -0.94300
C          1.81300       -1.27670       -3.56960
H          0.02190       -1.04120       -2.38890
H          1.39410       -1.79370       -1.50730
H          1.53570       -0.50550       -4.31880
H          1.49400       -2.26990       -3.94980
H          2.91570       -1.29170       -3.44870
