18
TSA8_9_OH_CN_NO2
C          2.61270       -1.09210        1.06740
C          1.24830       -0.39030        1.43290
O          2.51990       -1.60700       -0.24350
H          3.45900       -0.37370        1.09160
C          1.43430        0.99360        1.89380
C          2.80000       -2.25300        2.09770
C          1.62490       -3.20240        1.90330
C          0.30420       -2.43470        2.01330
O          0.49800       -1.09110        2.41100
N          4.03160       -3.01720        2.06670
H          2.74600       -1.80760        3.11660
H          1.69810       -3.69540        0.90260
H         -0.26450       -2.95690        2.80840
H         -0.28880       -2.48820        1.07530
H          1.97900       -0.97080       -0.79070
N          1.58680        2.08560        2.24720
O          4.91960       -2.75040        1.31740
O          4.19420       -3.98400        2.94850
