16
TSA8_9_F_NO2_Br
C          3.08840        1.06370       -1.31280
C          1.68330        1.16020       -1.87870
F          3.09830        0.23230       -0.20390
H          3.68470        0.57970       -2.11670
N          0.99970        0.02990       -2.21190
C          3.78020        2.40190       -0.94900
C          3.31470        3.01800        0.36030
C          2.09510        3.51510        0.58900
O          1.17350        2.25180       -2.08220
Br         5.68550        2.03920       -0.76450
H          3.68440        3.12960       -1.78320
H          4.02660        3.08160        1.17880
H          1.31570        3.52960       -0.15320
H          1.86740        3.94230        1.56040
O         -0.09830        0.10450       -2.67660
O          1.54060       -1.15680       -2.03300
