16
TSA8_9_F_NO2_Br
C          2.99210        0.97970       -0.87510
C          1.46990        1.19060       -1.15340
F          3.19600        0.71020        0.46880
H          3.37680        0.10680       -1.44480
N          1.15690        0.78770       -2.51300
C          3.72700        2.26220       -1.26000
C          3.20530        3.43970       -0.41800
C          1.75880        3.19900        0.05140
O          1.01140        2.53440       -0.94280
Br         5.65210        2.08660       -1.08220
H          3.50260        2.46790       -2.32930
H          3.81190        3.61670        0.49670
H          1.28840        4.17360        0.29600
H          1.73220        2.60320        0.99180
O          0.67440        1.56170       -3.28440
O          1.34440       -0.46060       -2.88350
