18
TSA8_9_Br_OMe_Br
C          3.23180       -0.35630        1.06440
C          1.79790       -0.12740        1.61300
Br         3.09200       -1.24920       -0.65900
H          3.74770        0.61260        0.89180
O          1.42480        1.23350        1.70370
C          4.02290       -1.19080        2.08260
C          3.27120       -2.47920        2.45250
C          1.74980       -2.24010        2.50640
O          1.46830       -0.88270        2.77670
Br         5.84230       -1.56900        1.51840
H          4.09410       -0.58410        3.01080
H          3.46500       -3.32310        1.75520
H          1.30100       -2.89280        3.28300
H          1.27220       -2.54220        1.54300
C          1.92230        1.80890        2.89290
H          1.86310        2.91250        2.79890
H          2.99370        1.56900        3.07070
H          1.29560        1.51020        3.76050
