20
TSA8_9_F_Me_Me
C          2.90330        2.19820        0.88960
C          1.50150        1.52220        0.75000
F          3.86210        1.23130        1.14920
H          3.19120        2.69390       -0.06340
C          0.61280        2.30620       -0.21580
C          2.84820        3.19480        2.05470
C          2.48550        2.44920        3.35670
C          1.66160        1.18070        3.06970
O          0.78720        1.38810        1.98320
C          4.14640        3.99010        2.21240
H          2.03160        3.91640        1.83450
H          3.37510        2.12620        3.94120
H          1.08630        0.90510        3.97770
H          2.32310        0.31110        2.85220
H          0.41790        3.33000        0.16690
H         -0.35700        1.77970       -0.33710
H          1.09690        2.37380       -1.21280
H          4.36480        4.54990        1.27810
H          4.99900        3.31210        2.43080
H          4.04560        4.72010        3.04370
