20
TSA8_9_Br_CF3_Me
C          2.66350       -1.63320       -2.03020
C          1.31240       -0.99030       -1.56850
Br         4.15440       -0.56290       -1.36460
H          2.79890       -2.63580       -1.56950
C          0.32590       -2.04220       -1.04840
C          2.66130       -1.74160       -3.56580
C          2.46660       -0.34910       -4.19710
C          1.59320        0.54760       -3.30320
O          0.65930       -0.23210       -2.59040
C          3.89550       -2.44900       -4.13170
H          1.77490       -2.35500       -3.83900
H          3.41860        0.19470       -4.38300
H          1.07100        1.29740       -3.93230
H          2.21400        1.13440       -2.58880
F         -0.83190       -1.41580       -0.62430
F          0.00750       -2.94600       -2.04610
F          0.87640       -2.71990        0.02430
H          3.98170       -3.46730       -3.69660
H          4.82160       -1.88110       -3.90280
H          3.80260       -2.54570       -5.23450
