18
TSA8_9_I_Me_CN
C          2.40930       -1.45540       -1.64970
C          1.42870       -2.28920       -0.84030
I          2.67470        0.50830       -0.74050
H          2.31730       -0.41420       -1.25890
C          1.65330       -2.58100        0.61000
C          2.08670       -1.45520       -3.18900
C          1.51280       -0.14660       -3.61950
C          0.20360        0.06250       -3.53990
O          0.43760       -2.77280       -1.36540
C          3.17530       -1.85150       -4.09260
H          1.35490       -2.26630       -3.41290
H          2.18170        0.67510       -3.87530
H         -0.45290       -0.74120       -3.22180
H         -0.20140        1.04030       -3.75790
H          2.53100       -2.03990        1.01810
H          1.82190       -3.67230        0.71890
H          0.74810       -2.29870        1.18900
N          3.98540       -2.15630       -4.86310
