18
TSA8_9_I_Me_CN
C          2.49950       -1.07010       -1.77840
C          1.18120       -1.34000       -0.98760
I          2.91030        1.04160       -1.65300
H          3.36890       -1.56730       -1.29410
C          1.37560       -2.43890        0.05700
C          2.30690       -1.58620       -3.21470
C          1.13300       -0.84730       -3.85840
C         -0.05220       -0.76680       -2.88070
O          0.08620       -1.70330       -1.82950
C          3.49590       -1.53640       -4.07440
H          2.03490       -2.66220       -3.14190
H          1.40050        0.19010       -4.17000
H         -0.97290       -0.98860       -3.45820
H         -0.17640        0.25830       -2.46280
H          2.17270       -2.14920        0.77410
H          1.65520       -3.39740       -0.43130
H          0.43280       -2.58460        0.62390
N          4.41200       -1.51850       -4.78140
