20
TSA8_9_NH2_Me_CN
C          2.29700        0.23470       -1.87680
C          1.18350       -0.81820       -1.86620
N          2.21880        1.11330       -0.68990
H          3.26050       -0.32240       -1.82990
C          1.46040       -2.26070       -1.55310
C          2.21890        1.09250       -3.19640
C          1.51940        2.38410       -2.88560
C          0.19470        2.46950       -2.86930
O          0.05840       -0.52740       -2.24030
C          3.50850        1.39590       -3.83200
H          1.68090        0.51830       -3.99140
H          2.10440        3.20590       -2.47680
H         -0.41590        1.63860       -3.19120
H         -0.27500        3.36650       -2.49170
H          2.82480        0.87880        0.12680
H          1.27220        1.51730       -0.47260
H          2.41820       -2.37460       -1.00730
H          1.48810       -2.85790       -2.48930
H          0.64400       -2.65560       -0.90930
N          4.49320        1.66660       -4.37780
