20
TSA8_9_NH2_Me_CN
C          1.57260       -0.01240       -0.04790
C          1.33330       -0.56470       -1.38230
N          1.64990        1.31620        0.37670
H          1.52290       -0.73630        0.72970
C          1.50210       -2.06040       -1.47810
C          2.05980        2.03330       -4.73320
C          2.00250        1.87370       -3.40610
C          0.73990        1.35070       -2.77110
O          0.84610       -0.01520       -2.57860
C          3.34140        2.21560       -5.35870
H          1.17240        1.91630       -5.35270
H          2.90690        1.97750       -2.81260
H         -0.08960        1.44980       -3.48100
H          0.36950        1.90420       -1.89710
H          2.68000        1.34290        0.48180
H          1.30440        2.14280       -0.12730
H          2.37830       -2.49170       -0.91790
H          1.60150       -2.39640       -2.53330
H          0.56460       -2.42760       -1.07730
N          4.38870        2.36230       -5.82670
