20
TSA8_9_NH2_Me_CN
C          2.54860        0.49010       -1.86260
C          1.19500       -0.24380       -1.57910
N          2.75630        1.56350       -0.87970
H          3.40740       -0.21340       -1.76590
C          1.38610       -1.76110       -1.64780
C          2.48900        1.01860       -3.30800
C          1.35170        2.02780       -3.42370
C          0.08420        1.49340       -2.73480
O          0.15310        0.09810       -2.50040
C          3.73900        1.57720       -3.83800
H          2.25000        0.15410       -3.96490
H          1.61610        3.01040       -2.96500
H         -0.75900        1.70450       -3.42370
H         -0.14430        2.03120       -1.78890
H          2.95190        1.13080        0.05290
H          1.88740        2.13060       -0.75220
H          2.16710       -2.08800       -0.92870
H          1.68590       -2.07050       -2.67280
H          0.43610       -2.26980       -1.38370
N          4.70190        2.02450       -4.29860
