21
TSA8_9_OMe_OH_NO2
C          0.62310       -1.47210        0.11320
C          1.55780       -0.65060        0.97960
O          1.34350       -2.04880       -0.96420
H         -0.21360       -0.83390       -0.26100
O          1.33240        0.66480        1.18380
C         -0.02110       -2.60960        0.93880
C         -0.84320       -2.04760        2.07940
C         -0.56240       -2.31720        3.35790
O          2.53070       -1.17690        1.49670
N         -0.87080       -3.42940        0.09380
H          0.79710       -3.25020        1.34310
H         -1.68750       -1.40260        1.85240
H          0.27290       -2.95490        3.62870
H         -1.17520       -1.89350        4.14700
C          1.57270       -1.09240       -1.97830
H          2.03060       -1.60890       -2.84640
H          2.29200       -0.31580       -1.63860
H          0.62560       -0.63800       -2.34480
H          0.57390        1.11890        0.79130
O         -1.81560       -2.95550       -0.46260
O         -0.60040       -4.70750       -0.06520
