21
TSA8_9_OMe_OH_NO2
C          1.59790        0.08750       -0.10130
C          1.20710       -0.31550        1.11330
O          1.67390       -0.81390       -1.10860
H          1.82020        1.13630       -0.28460
O          1.07950        0.56880        2.13140
C         -1.05110       -4.30370        1.84040
C         -0.92960       -2.99100        1.58050
C          0.08910       -2.13300        2.27240
O          0.92360       -1.62720        1.29980
N         -1.98920       -5.12690        1.15530
H         -0.40920       -4.76180        2.58820
H         -1.56220       -2.52100        0.83310
H          0.68910       -2.72380        2.99730
H         -0.43620       -1.32350        2.82600
C          1.89010       -0.44980       -2.41600
H          1.90280       -1.36260       -3.04680
H          2.86210        0.07650       -2.51510
H          1.06500        0.20880       -2.76400
H          1.27940        1.51080        2.03020
O         -2.68290       -4.68300        0.29050
O         -2.05570       -6.40870        1.44340
