23
TSA8_9_NH2_Et_OH
C          2.85270       -0.44140        1.21820
C          1.39260       -0.25140        1.59490
N          3.00070       -0.51010       -0.23770
H          3.39770        0.46320        1.56680
C          0.94800        0.96540        2.36810
C          3.56830       -1.64160        1.89900
C          3.09680       -3.01790        1.46840
C          1.91820       -3.54330        1.81290
O          0.54940       -1.05170        1.22060
O          4.93630       -1.53570        1.59210
H          3.44190       -1.54020        3.00400
H          3.77260       -3.63340        0.88050
H          1.21640       -3.00810        2.43870
H          1.65850       -4.54410        1.48110
H          2.47270       -1.32880       -0.61930
H          2.61630        0.36150       -0.66910
C          1.57630        1.01390        3.75950
H         -0.15790        0.95210        2.48600
H          1.22650        1.87950        1.80150
H          1.28950        0.11280        4.34200
H          1.21480        1.91620        4.29670
H          2.68300        1.06910        3.69760
H          5.43550       -1.97570        2.32920
