18
TSA8_9_OH_H_CF3
C          3.11990        0.65980       -1.43640
C          1.63020        0.42540       -1.44260
O          3.64240        0.35090       -0.16910
H          3.56820       -0.01600       -2.20180
H          1.20480       -0.30100       -2.12750
C          3.48190        2.11580       -1.83400
C          2.95190        3.11200       -0.82210
C          2.06510        4.05570       -1.15320
O          0.89400        1.02610       -0.67570
C          5.00530        2.30330       -1.98540
H          3.03080        2.31280       -2.83370
H          3.30260        3.06090        0.20500
H          1.68830        4.14310       -2.16740
H          1.70900        4.75160       -0.40070
H          3.67570       -0.63950       -0.10480
F          5.65710        2.07380       -0.78560
F          5.50000        1.43020       -2.93830
F          5.27750        3.59630       -2.39780
