18
TSA8_9_OH_H_CF3
C          3.00910        0.94030       -1.42500
C          1.46850        0.93790       -1.64620
O          3.31190        0.98100       -0.05360
H          3.44450        0.01210       -1.86330
H          1.28720        0.48250       -2.64360
C          3.57820        2.18330       -2.12890
C          2.95130        3.45790       -1.51940
C          1.55790        3.17760       -0.92690
O          0.85790        2.23020       -1.70220
C          5.11530        2.24660       -2.12720
H          3.24780        2.12430       -3.19080
H          3.56090        3.90300       -0.70300
H          0.98720        4.12770       -0.87870
H          1.63020        2.81340        0.12270
H          3.07440        0.09060        0.31560
F          5.60500        2.31580       -0.83440
F          5.63360        1.12110       -2.74280
F          5.53740        3.36390       -2.82600
