27
TSA8_9_OMe_CF3_Et
C          2.66360        1.38500        0.40190
C          1.42990        1.28510       -0.47790
O          2.46150        0.65290        1.60080
H          3.54020        1.00520       -0.17800
C          1.54610        0.76500       -1.88740
C          2.97430        2.87140        0.73310
C          1.94560        3.45360        1.68470
C          1.15610        4.47560        1.34280
O          0.34260        1.63700       -0.04840
C          4.40950        3.08520        1.27780
H          2.95290        3.43220       -0.22900
H          1.83980        3.03020        2.67910
H          1.21980        4.93370        0.36030
H          0.43200        4.86080        2.05370
C          2.74600       -0.71530        1.41400
H          3.83580       -0.87720        1.27010
H          2.15160       -1.15230        0.58430
H          2.44470       -1.25890        2.33340
F          0.30920        0.76890       -2.50870
F          2.40860        1.57230       -2.60610
F          2.03640       -0.52610       -1.87730
C          4.74260        2.37470        2.59140
H          4.56740        4.17670        1.42400
H          5.13720        2.74440        0.50980
H          4.06520        2.70270        3.40690
H          5.78360        2.62650        2.88360
H          4.68720        1.27550        2.47570
