27
TSA8_9_OMe_CF3_Et
C          1.49600        0.05400       -0.10610
C          1.37560        1.10050       -0.96100
O          1.40700        0.20590        1.23610
H          1.64510       -0.94610       -0.50300
C          1.43740        0.87940       -2.45470
C          3.58520        4.10570        1.11630
C          2.88650        2.96920        0.96610
C          1.40920        2.97880        0.66900
O          1.17970        2.39520       -0.56470
C          5.06920        4.10290        1.36900
H          3.08290        5.06580        1.03390
H          3.39480        2.01240        1.03800
H          1.03620        4.02420        0.62250
H          0.82910        2.47740        1.46900
C          1.42470       -0.84470        2.13000
H          2.27610       -0.71660        2.82940
H          1.52110       -1.82900        1.62160
H          0.47900       -0.84040        2.71170
F          0.25130        1.30510       -3.02370
F          2.47690        1.62770       -2.97530
F          1.63820       -0.44800       -2.79260
C          5.43140        3.41290        2.68150
H          5.42550        5.15450        1.41300
H          5.58460        3.59370        0.52610
H          4.93620        3.92590        3.53420
H          6.53120        3.45590        2.82830
H          5.12290        2.34670        2.66630
