27
TSA8_9_OMe_CF3_Et
C          2.77860        1.43190        0.38440
C          1.40700        1.44540       -0.38870
O          2.59700        0.96740        1.71140
H          3.53360        0.79990       -0.13900
C          1.56470        1.05280       -1.86320
C          3.30720        2.88330        0.42620
C          2.28750        3.79570        1.14340
C          0.85150        3.27860        0.95010
O          0.70930        2.69270       -0.32350
C          4.75460        3.05290        0.94720
H          3.33740        3.22770       -0.63030
H          2.44520        3.89550        2.23600
H          0.13770        4.11970        1.06880
H          0.58220        2.53680        1.73710
C          2.24160       -0.40010        1.72380
H          2.48900       -0.81500        2.72210
H          2.81320       -1.00790        0.98620
H          1.14790       -0.51400        1.56630
F          0.31870        1.01210       -2.46040
F          2.35270        1.96890       -2.53560
F          2.13830       -0.20220       -1.96100
C          5.00450        2.61480        2.39360
H          5.03430        4.12500        0.85500
H          5.43700        2.46890        0.29190
H          4.37740        3.18440        3.10740
H          6.06810        2.80570        2.64940
H          4.82400        1.52910        2.52060
