18
TSA8_9_CN_Cl_CCl3
C          2.94600       -0.47300       -1.53940
C          1.62390       -1.17580       -1.11980
C          2.71070        0.95470       -1.24890
H          3.79630       -0.82350       -0.91440
Cl         1.86390       -2.34950        0.20130
C          3.18950       -0.79010       -3.04930
C          1.96780       -0.28910       -3.82780
C          0.67560       -0.83270       -3.20200
O          0.94210       -1.79840       -2.19960
C          4.51130       -0.38670       -3.75440
H          3.19940       -1.90140       -3.12080
H          1.93340        0.82530       -3.86130
H          0.11750       -1.31810       -4.02710
H          0.03460       -0.01530       -2.80260
N          2.52170        2.06780       -0.99080
Cl         4.45120       -0.97690       -5.44840
Cl         4.80910        1.36930       -3.80070
Cl         5.90980       -1.19120       -2.99430
