20
TSA8_9_Me_CH2F_H
C          1.76560        0.10110       -0.04900
C          1.40760        1.38250       -0.27700
C          1.90160       -0.49570        1.32450
H          1.95820       -0.55980       -0.88890
C          1.25440        1.89010       -1.68570
C          4.05610        3.98750        0.22240
C          2.75460        3.97650        0.52130
C          2.14920        2.93140        1.41720
O          1.15820        2.23110        0.75310
H          4.45490        4.75950       -0.42760
H          4.73070        3.23420        0.61720
H          2.10890        4.74530        0.10680
H          1.69400        3.44960        2.28620
H          2.91830        2.22700        1.80500
H          1.66030        0.22270        2.13410
H          2.94090       -0.85610        1.46580
H          1.20600       -1.35600        1.41490
F         -0.04070        2.33320       -1.87610
H          1.47410        1.10230       -2.43790
H          1.95430        2.73310       -1.85840
