20
TSA8_9_Me_CH2F_H
C          2.67970        1.03880       -0.02240
C          1.25070        1.56110       -0.28490
C          2.66940        0.04970        1.15710
H          3.04450        0.43400       -0.88240
C          1.06990        2.20760       -1.66180
C          3.64850        2.22070        0.19770
C          2.95800        3.46320        0.78210
C          1.67630        3.10100        1.53550
O          0.71500        2.38690        0.75440
H          4.06560        2.54480       -0.78110
H          4.51400        1.89720        0.81460
H          2.65120        4.14180       -0.04170
H          1.21120        4.05390        1.86450
H          1.91500        2.54540        2.46130
H          2.32930        0.48910        2.10960
H          3.69060       -0.35820        1.31490
H          1.99660       -0.80250        0.92070
F         -0.26320        2.51820       -1.85540
H          1.38240        1.49130       -2.45040
H          1.67160        3.12980       -1.77060
