23
TSA8_9_CBr3_F_Et
C          1.29750       -1.63570        1.56020
C          2.47030       -1.39520        2.49480
C          1.77180       -1.57680        0.06560
H          0.62240       -0.76300        1.69770
F          3.51500       -2.26040        2.56200
C          0.47170       -2.89360        2.03640
C         -0.91140       -2.93860        1.40740
C         -1.81570       -1.97210        1.60270
O          2.49030       -0.39720        3.19820
C          1.19610       -4.25060        1.84270
H          0.30710       -2.77160        3.13190
H         -1.19830       -3.78200        0.78580
H         -1.59740       -1.11040        2.22450
H         -2.79450       -2.04520        1.13990
Br         2.53880        0.17570       -0.29010
Br         3.15250       -2.86530       -0.41200
Br         0.32570       -1.76590       -1.21730
C          0.46730       -5.41450        2.52300
H          2.20600       -4.21070        2.29430
H          1.29020       -4.48600        0.76350
H          0.37700       -5.22650        3.61390
H          1.04600       -6.35030        2.37270
H         -0.54540       -5.56710        2.09770
