23
TSA8_9_CBr3_F_Et
C          1.57370        0.06370       -0.04790
C          1.43330       -1.02230        0.72420
C          2.24660        0.02780       -1.39730
H          1.15550        1.00250        0.30470
F          1.92070       -2.22220        0.30060
C          0.31200       -3.95590        3.57360
C          0.31760       -3.23530        2.44220
C         -0.15280       -1.80410        2.39690
O          0.79360       -0.91490        1.91560
C          0.72630       -5.40610        3.58180
H         -0.00580       -3.50360        4.50790
H          0.62160       -3.71580        1.52050
H         -0.47080       -1.45860        3.40420
H         -1.03990       -1.76280        1.73250
Br         2.11150        1.76510       -2.24380
Br         4.12510       -0.41530       -1.21170
Br         1.39070       -1.26550       -2.56940
C         -0.17870       -6.25620        2.68710
H          0.66010       -5.79040        4.61960
H          1.78210       -5.49410        3.23710
H         -1.23370       -6.18140        3.02690
H          0.13750       -7.31860        2.73880
H         -0.11750       -5.93100        1.62660
