19
TSA8_9_NO2_Br_CHF2
C          1.65250       -2.57450       -0.09260
C          1.16730       -1.55220        0.95280
N          1.82320       -1.87130       -1.36190
H          2.64820       -2.96800        0.20930
Br         1.42030       -2.08990        2.81340
C          0.64110       -3.76000       -0.09440
C         -0.78490       -3.23880       -0.31390
C         -1.08220       -2.15540        0.73290
O         -0.14710       -1.08790        0.67400
C          1.00280       -4.94400       -1.01360
H          0.66270       -4.19190        0.93180
H         -0.91870       -2.82440       -1.33270
H         -1.12100       -2.59530        1.75290
H         -2.09620       -1.74990        0.53450
O          2.61770       -0.98140       -1.42730
O          1.11150       -2.15650       -2.42820
F          0.11760       -5.98450       -0.79240
F          0.96350       -4.62460       -2.35510
H          2.02410       -5.30250       -0.76410
