18
TSA8_9_Cl_Me_OH
C          3.04310       -0.46200       -1.49540
C          1.48620       -0.43230       -1.64140
Cl         3.57190        0.84980       -0.39510
H          3.37430       -1.40750       -1.01260
C          0.91480       -1.84920       -1.66750
C          3.66800       -0.32110       -2.89250
C          3.20170        0.97710       -3.58010
C          1.80100        1.38430       -3.09160
O          1.02100        0.24250       -2.81490
O          5.06820       -0.43400       -2.87980
H          3.27240       -1.16560       -3.49760
H          3.87670        1.84160       -3.39820
H          1.30970        2.00660       -3.86750
H          1.85770        2.02600       -2.18360
H          1.29820       -2.40990       -2.54630
H         -0.19290       -1.80160       -1.72560
H          1.19020       -2.39000       -0.73760
H          5.43080        0.34790       -2.38860
