24
TSA8_9_Et_CH2F_CN
C          1.55520        0.04560       -0.06990
C          1.26370        0.76790       -1.22750
C          1.67720        0.37600        1.40560
H          1.51210       -1.05110       -0.18980
C          1.23080       -0.01830       -2.49400
C          1.82190        5.02510       -0.25210
C          1.73260        3.71270       -0.01300
C          0.49040        2.92930       -0.32340
O          0.79800        2.05400       -1.33890
C          3.08620        5.69790       -0.11360
H          0.97330        5.60140       -0.61670
H          2.60780        3.18480        0.35220
H         -0.31450        3.60850       -0.65770
H          0.04100        2.39770        0.53600
C          3.08510       -0.08080        1.71550
H          1.00800       -0.20840        2.10470
H          1.53790        1.43750        1.65320
H          3.19340       -1.17180        1.51360
H          3.35900        0.18780        2.73110
H          3.84750        0.41080        1.10150
F          1.37040        0.73400       -3.64970
H          0.21250       -0.39660       -2.48000
H          1.96270       -0.85470       -2.51160
N          4.08880        6.26570       -0.01320
