20
TSA8_9_NH2_NO2_NH2
C          2.97030       -1.01630       -1.15170
C          1.65230       -1.45470       -0.52120
N          3.18120        0.42120       -0.95080
H          3.81000       -1.54750       -0.65460
N          1.61270       -2.36780        0.49060
C          3.04990       -1.40100       -2.65300
C          2.01000       -0.69520       -3.50300
C          1.07190       -1.36480       -4.17910
O          0.60720       -0.96590       -0.93300
N          4.38880       -1.11170       -3.17080
H          2.89910       -2.50370       -2.71260
H          2.02810        0.38810       -3.57500
H          1.01510       -2.44800       -4.14120
H          0.34820       -0.82310       -4.77970
H          3.23510        0.61980        0.07480
H          2.38250        0.97080       -1.34160
O          0.56580       -2.69020        0.96640
O          2.71880       -2.90750        0.95830
H          4.56530       -0.08050       -3.17130
H          4.46440       -1.46060       -4.15440
