21
TSA8_9_Et_I_OH
C          2.30050       -0.15840       -1.32800
C          0.86420       -0.73800       -1.55400
C          2.21380        1.13520       -0.47380
H          2.88070       -0.88700       -0.72070
I          0.85100       -2.84910       -1.18430
C          2.96210        0.00210       -2.71250
C          2.11440        0.92730       -3.61940
C          0.61330        0.74470       -3.33690
O          0.35420       -0.56100       -2.87680
O          4.32010        0.36830       -2.63210
H          2.93340       -1.00160       -3.19170
H          2.34430        2.00920       -3.50970
H          0.04140        0.94580       -4.26560
H          0.23620        1.48270       -2.59560
C          3.56820        1.65630        0.01010
H          1.62480        0.89710        0.43920
H          1.69010        1.95170       -1.00750
H          4.10110        0.86870        0.58430
H          3.40610        2.52830        0.67830
H          4.20250        1.99920       -0.82720
H          4.44510        1.27180       -3.02070
