21
TSA8_9_OH_CHF2_CCl3
C          2.07140        1.52120       -1.57210
C          0.84340        1.14570       -2.36360
O          1.80510        1.22160       -0.22220
H          2.94090        0.91320       -1.92580
C          0.88690        0.04590       -3.38950
C          2.45110        3.03000       -1.68670
C          3.55820        3.31540       -0.68610
C          3.38290        4.16080        0.33590
O         -0.21390        1.71590       -2.13480
C          2.90320        3.49950       -3.10660
H          1.55610        3.62870       -1.40380
H          4.51770        2.81830       -0.79420
H          2.43880        4.67660        0.48420
H          4.19080        4.34140        1.03720
H          2.31330        0.40070        0.01090
F         -0.36030       -0.13860       -3.96040
F          1.79730        0.35080       -4.38230
H          1.19610       -0.89890       -2.89690
Cl         1.60030        3.38190       -4.32010
Cl         3.36220        5.22760       -3.06530
Cl         4.31440        2.57650       -3.70310
