21
TSA8_9_OH_CHF2_CCl3
C          2.02870        0.10240       -0.35440
C          1.42780        0.94130       -1.22520
O          2.38400        0.49960        0.88340
H          2.21240       -0.93140       -0.63580
C          0.99410        0.43550       -2.57390
C          2.56310        4.14570       -2.67190
C          3.02180        3.57220       -1.54610
C          2.07300        3.17350       -0.44990
O          1.16180        2.24350       -0.92370
C          3.47570        4.57000       -3.79220
H          1.49410        4.31430       -2.77710
H          4.08630        3.40030       -1.41260
H          1.52160        4.08010       -0.12380
H          2.63310        2.79530        0.42580
H          2.79120       -0.12080        1.50380
F         -0.36920        0.60770       -2.71660
F          1.64560        1.15110       -3.56070
H          1.23090       -0.64180       -2.70970
Cl         2.51810        5.30530       -5.10340
Cl         4.65490        5.77620       -3.21440
Cl         4.34650        3.16190       -4.45290
