20
TSA8_9_CH2F_Br_CBr3
C          1.79150        0.06060       -0.12260
C          1.41440        1.05380       -0.96900
C          1.80500        0.00590        1.38250
H          2.12850       -0.86260       -0.58570
Br         1.52310        0.65750       -2.83870
C          2.57510        4.63850        1.23640
C          2.20730        3.35880        1.04410
C          0.84070        2.99920        0.51560
O          0.94070        2.30130       -0.67150
C          3.93660        5.00520        1.76500
H          1.87200        5.43530        1.01060
H          2.91150        2.56810        1.27680
H          0.26870        3.92830        0.30660
H          0.22550        2.43920        1.24430
F          3.09260       -0.25870        1.80880
H          1.14760       -0.82780        1.70690
H          1.45560        0.89970        1.90450
Br         4.08280        6.93100        1.93240
Br         4.22710        4.22220        3.51660
Br         5.32260        4.39440        0.55360
