20
TSA8_9_CH2F_Br_CBr3
C          2.57280        1.73940        0.27200
C          1.27410        1.58710       -0.58800
C          2.52370        0.70930        1.41330
H          3.44040        1.45200       -0.35850
Br         1.69840        1.25850       -2.45390
C          2.70420        3.23540        0.69880
C          1.41970        3.70270        1.42010
C          0.16990        3.03640        0.82710
O          0.39530        2.70520       -0.52350
C          3.99180        3.70370        1.43720
H          2.72420        3.77670       -0.27490
H          1.41310        3.52330        2.51540
H         -0.69130        3.72960        0.91630
H         -0.11610        2.12450        1.40130
F          3.74930        0.59910        2.03760
H          2.30220       -0.29250        0.98620
H          1.73750        0.94680        2.15770
Br         4.02530        5.64740        1.48490
Br         4.13870        3.12770        3.29100
Br         5.58900        3.14960        0.48180
