17
TSA8_9_I_CHF2_F
C          2.96570       -1.55280        0.25810
C          1.42740       -1.82770        0.20510
I          3.49360        0.01690       -1.11730
H          3.26510       -1.15640        1.25270
C          0.83360       -1.96360        1.60930
C          3.71630       -2.85130       -0.04760
C          3.29790       -3.41270       -1.41450
C          1.83260       -3.06690       -1.73120
O          1.07640       -2.99450       -0.54340
F          5.08790       -2.67830        0.00920
H          3.42510       -3.59280        0.72680
H          3.92230       -3.03190       -2.25170
H          1.41260       -3.83650       -2.41120
H          1.75460       -2.10300       -2.28300
F         -0.53700       -2.12200        1.51950
F          1.37440       -3.05620        2.26350
H          1.04230       -1.04550        2.19780
