20
TSA8_9_CF3_Cl_CHF2
C          1.51480       -2.28760       -0.51850
C          1.10280       -1.38530        0.62740
C          1.76660       -1.43070       -1.78440
H          2.49610       -2.73330       -0.24150
Cl         2.12710       -1.24210        2.04740
C          0.50230       -3.47870       -0.65000
C         -0.91330       -3.03190       -0.96110
C         -1.92120       -3.23010       -0.10500
O          0.06720       -0.73920        0.57750
C          0.92890       -4.55980       -1.66150
H          0.51570       -3.98000        0.34580
H         -1.12680       -2.54410       -1.90620
H         -1.76040       -3.71710        0.85190
H         -2.92270       -2.90110       -0.36140
F          2.66210       -0.41940       -1.47970
F          2.33250       -2.18430       -2.79290
F          0.59940       -0.85090       -2.24640
F          0.11340       -5.66950       -1.52030
F          0.82200       -4.11680       -2.96700
H          1.97430       -4.87620       -1.46040
