20
TSA8_9_CCl3_CHF2_F
C          1.15420       -0.84830        1.14450
C          2.09720       -1.98400        1.58360
C          1.79140        0.32100        0.31760
H          0.43400       -1.30850        0.43250
C          3.60900       -1.93880        1.53850
C          0.35630       -0.31730        2.37730
C         -0.50980       -1.36820        3.02880
C         -1.51810       -1.95700        2.37780
O          1.58490       -3.01080        2.00650
F          1.23540        0.18260        3.32330
H         -0.32710        0.50350        2.07730
H         -0.31850       -1.64660        4.06110
H         -1.74940       -1.69810        1.34910
H         -2.12540       -2.70370        2.87840
Cl         2.57450       -0.29240       -1.16600
Cl         0.51640        1.43160       -0.26570
Cl         2.96240        1.32130        1.22110
F          4.08340       -0.96950        2.39850
F          4.13530       -3.15460        1.94270
H          3.97800       -1.74780        0.51550
