15
TSA8_9_OH_I_Br
C          0.91580       -0.77940       -1.08130
C          1.60970       -1.12230        0.21300
O          1.84460       -0.20920       -1.96640
H          0.09240       -0.05400       -0.88560
I          0.96180       -0.26110        2.02790
C          0.29680       -2.03210       -1.72820
C         -0.74230       -2.64710       -0.82390
C         -0.62840       -3.89490       -0.35980
O          2.55120       -1.89940        0.22380
Br        -0.56370       -1.56470       -3.40550
H          1.10580       -2.76200       -1.95600
H         -1.60800       -2.05590       -0.53890
H          0.22310       -4.51610       -0.61920
H         -1.39550       -4.30240        0.29070
H          1.98650        0.72760       -1.66850
