15
TSA8_9_OH_I_Br
C          1.90820        0.06340        0.13890
C          1.20900       -1.04670        0.39180
O          2.36340        0.31900       -1.10520
H          2.11140        0.77070        0.93780
I          0.53820       -1.35590        2.39070
C         -0.93980       -3.86710       -2.63260
C         -0.86250       -2.95210       -1.66110
C          0.16320       -3.04070       -0.56840
O          0.97040       -1.92130       -0.62170
Br        -2.25780       -3.71000       -4.00820
H         -0.25870       -4.71240       -2.66100
H         -1.55630       -2.11670       -1.65740
H          0.80070       -3.94200       -0.69590
H         -0.36850       -3.13230        0.39820
H          2.86390        1.12480       -1.29020
