20
TSA8_9_H_CH2F_CCl3
C          1.89730        0.21340       -0.01890
C          1.49040        1.45660        0.30370
H          2.35730       -0.46330        0.68660
H          1.76600       -0.16450       -1.02860
C          0.84650        2.32550       -0.73860
C          2.96390        3.81470        3.36240
C          3.34130        2.56920        3.03130
C          2.33040        1.53230        2.64430
O          1.62320        1.99710        1.54830
C          3.96330        4.88250        3.72100
H          1.90530        4.06380        3.36010
H          4.39430        2.30070        3.02690
H          1.62790        1.36290        3.48820
H          2.86700        0.58650        2.44650
F          1.59420        3.47820       -0.89660
H         -0.17390        2.60450       -0.40340
H          0.76620        1.81650       -1.72250
Cl         3.11420        6.40350        4.09610
Cl         4.91450        4.39840        5.14860
Cl         5.06490        5.17890        2.34990
