21
TSA8_9_OH_NH2_OMe
C          2.83150       -0.73580        0.63900
C          1.57240        0.05240        0.92700
O          2.85680       -1.03800       -0.73190
H          3.69910       -0.08740        0.89570
N          1.63920        1.30650        1.43420
C          2.87560       -2.04620        1.46980
C          2.78570       -1.77560        2.96380
C          1.77160       -2.23120        3.70680
O          0.48040       -0.44740        0.69730
O          3.98220       -2.87790        1.12830
H          1.97520       -2.63040        1.17400
H          3.55740       -1.18690        3.45000
H          1.73780       -2.01410        4.76930
H          0.97160       -2.82040        3.26900
H          3.80500       -1.20290       -0.97610
H          0.77740        1.83770        1.62810
H          2.54680        1.75060        1.63670
C          5.23640       -2.35610        1.52370
H          6.02150       -3.05040        1.16140
H          5.34480       -2.32570        2.62740
H          5.45970       -1.37880        1.05160
