21
TSA8_9_OH_NH2_OMe
C          1.73100        0.07400        0.09080
C          1.50690        0.45750        1.36830
O          1.78900       -1.21910       -0.28380
H          1.85690        0.83320       -0.67750
N          1.44020        1.84640        1.65640
C          3.60790       -3.23240        2.44190
C          3.08900       -1.99460        2.36970
C          1.60620       -1.76190        2.47490
O          1.33000       -0.40720        2.41240
O          4.94340       -3.48780        2.36970
H          2.93790       -4.07750        2.56820
H          3.73640       -1.13290        2.24280
H          1.26590       -2.13920        3.46240
H          1.04190       -2.31850        1.69790
H          1.92800       -1.45960       -1.21020
H          1.27960        2.16160        2.62330
H          1.57080        2.55500        0.91890
C          5.94220       -2.54050        2.25050
H          6.92690       -3.04990        2.22380
H          5.92440       -1.85280        3.12350
H          5.81570       -1.96330        1.30960
