20
TSA8_9_I_OMe_NH2
C          1.86900       -0.07270        0.07980
C          1.81400        1.25780        0.31050
I          1.74260       -1.71530        1.41950
H          1.97500       -0.39830       -0.95090
O          1.89360        2.06600       -0.77650
C          4.31200        2.06840        3.63990
C          3.57230        1.29760        2.82950
C          2.07200        1.41010        2.78530
O          1.68030        1.84790        1.53740
N          5.72580        1.97670        3.64370
H          3.83350        2.78770        4.29860
H          4.06100        0.58810        2.16770
H          1.72320        2.16050        3.52700
H          1.57910        0.46330        3.06520
C          1.97950        3.43950       -0.69330
H          2.04190        3.86410       -1.71530
H          2.89550        3.72660       -0.13210
H          1.08380        3.85230       -0.18220
H          6.22000        1.32040        3.02110
H          6.27470        2.58970        4.26280
