20
TSA8_9_NO2_OH_CF3
C          2.16680        1.40710       -1.72110
C          0.88180        1.06340       -2.44470
N          1.95970        1.24780       -0.29110
H          2.95800        0.69540       -2.05250
O          0.83520        0.03390       -3.31760
C          2.65520        2.85110       -2.03530
C          3.92890        3.12190       -1.26070
C          4.00760        4.08390       -0.33630
O         -0.12970        1.71750       -2.24250
C          2.93010        3.08320       -3.53840
H          1.86500        3.57030       -1.72020
H          4.80700        2.51310       -1.45870
H          3.15390        4.71280       -0.10410
H          4.93760        4.24490        0.19920
O          2.59840        0.44540        0.32050
O          1.07920        1.99290        0.34390
H          1.61010       -0.51380       -3.50540
F          3.88650        2.19600       -4.00240
F          1.77520        2.92600       -4.28300
F          3.38880        4.37490       -3.73340
