20
TSA8_9_NO2_OH_CF3
C          2.25080        1.39020       -1.98410
C          0.86110        1.73780       -1.35430
N          3.13160        0.74970       -1.01070
H          2.08450        0.65470       -2.80320
O         -0.12810        1.59170       -2.33000
C          2.81790        2.71160       -2.56210
C          2.99650        3.74860       -1.43900
C          1.97200        3.54220       -0.31140
O          0.74400        3.05700       -0.81110
C          4.07540        2.59830       -3.44650
H          2.01730        3.09830       -3.23350
H          4.00570        3.72830       -0.97240
H          1.81480        4.50870        0.21000
H          2.35770        2.85130        0.46590
O          4.19000        0.32240       -1.35720
O          2.70310        0.46830        0.20180
H         -0.64260        0.79370       -2.04810
F          5.18660        2.21820       -2.71790
F          3.85820        1.67960       -4.45730
F          4.34040        3.82840       -4.02240
