19
TSA8_9_CH2F_F_NH2
C          1.42150       -1.74030       -1.52310
C          1.08180       -1.67740       -0.02140
C          1.15140       -0.36780       -2.16900
H          2.50740       -1.94790       -1.64430
F          1.56590       -2.77870        0.67120
C          0.61370       -2.90710       -2.14620
C         -0.87830       -2.75990       -1.81400
C         -1.03460       -2.61810       -0.29440
O         -0.31060       -1.50080        0.19820
N          0.83130       -3.02290       -3.58940
H          0.96970       -3.84910       -1.67180
H         -1.31070       -1.86910       -2.31680
H         -0.72790       -3.55310        0.22610
H         -2.11080       -2.47190       -0.06650
F          1.92600        0.59950       -1.55260
H          0.08630       -0.07260       -2.07800
H          1.42600       -0.38380       -3.24350
H          0.38550       -2.22190       -4.09230
H          0.37470       -3.89930       -3.93180
