19
TSA8_9_CH2F_NH2_F
C          2.66880       -0.73730        0.90980
C          1.35850       -0.65050        1.67250
C          2.40190       -0.56020       -0.59590
H          3.30020        0.11830        1.23780
N          1.17660        0.30380        2.61670
C          3.50620       -2.01380        1.21890
C          2.93100       -3.32550        0.73290
C          1.87980       -3.92810        1.29550
O          0.44240       -1.41660        1.41590
F          4.74680       -1.86110        0.62150
H          3.69310       -2.08560        2.31260
H          3.42550       -3.83070       -0.09230
H          1.37290       -3.50510        2.15380
H          1.53340       -4.88010        0.90740
F          3.58800       -0.50860       -1.30620
H          1.85370        0.39040       -0.77090
H          1.78380       -1.39710       -0.98570
H          0.28130        0.37260        3.12340
H          1.92350        0.97480        2.84670
