19
TSA8_9_CH2F_NH2_F
C          2.74890       -0.70120        0.86530
C          1.38160       -0.79370        1.62590
C          2.55960       -0.83160       -0.65950
H          3.19300        0.30800        1.01840
N          1.32570        0.23290        2.66290
C          3.69120       -1.76130        1.44970
C          3.08630       -3.16570        1.31640
C          1.55200       -3.12510        1.43170
O          1.14310       -2.05760        2.25460
F          4.95340       -1.71530        0.88490
H          3.79100       -1.53950        2.53540
H          3.34390       -3.66450        0.35780
H          1.19640       -4.08910        1.84960
H          1.05480       -3.03970        0.44190
F          3.77040       -0.66220       -1.30670
H          1.86710       -0.03830       -1.01310
H          2.13990       -1.80690       -0.96710
H          0.40680        0.16360        3.15530
H          1.36670        1.17550        2.21280
