20
TSA8_9_H_CH2F_CBr3
C          2.30280        0.54990        0.25130
C          1.51200        1.27220        1.06830
H          2.72550       -0.40090        0.55130
H          2.53150        0.89620       -0.75170
C          0.93840        2.57890        0.59980
C          2.93660        2.12640        4.28450
C          3.17120        0.97930        3.62030
C          2.01440        0.12780        3.17650
O          1.20240        0.86440        2.33140
C          3.99080        3.09000        4.77110
H          1.90400        2.39870        4.49200
H          4.17640        0.64960        3.38580
H          1.43050       -0.16700        4.07310
H          2.36450       -0.80700        2.68870
F         -0.43950        2.54290        0.67690
H          1.23670        2.81890       -0.44310
H          1.31320        3.38770        1.26270
Br         3.83130        3.25870        6.69220
Br         5.82730        2.59760        4.35630
Br         3.64190        4.81950        3.97410
