17
TSA8_9_Cl_H_CH2F
C          2.95800       -1.49760       -1.59210
C          1.54390       -1.13840       -1.20470
Cl         4.06910       -0.66220       -0.46320
H          3.06300       -2.59110       -1.42290
H          1.20850       -1.33940       -0.19250
C          3.28870       -1.20290       -3.08390
C          3.23920        0.28090       -3.39010
C          2.37890        0.79510       -4.27430
O          0.76130       -0.64110       -1.99960
C          4.66020       -1.76710       -3.49300
H          2.53520       -1.74410       -3.70070
H          3.92540        0.95130       -2.88110
H          1.67540        0.16360       -4.80810
H          2.37490        1.86270       -4.46790
F          5.69600       -1.15230       -2.81160
H          4.81750       -1.61040       -4.58190
H          4.69600       -2.85990       -3.29680
