21
TSA8_9_CCl3_OH_CF3
C          1.43780       -0.98090        2.15270
C          2.65530       -1.89130        2.30550
C          1.33710       -0.36420        0.71880
H          1.62630       -0.10610        2.81670
O          2.80950       -3.04280        1.61580
C          0.10280       -1.61150        2.69320
C         -0.39250       -2.80070        1.89650
C         -1.55740       -2.77410        1.23940
O          3.53990       -1.56070        3.08040
C          0.20550       -2.01390        4.18160
H         -0.66740       -0.81020        2.65160
H          0.19330       -3.71130        1.86520
H         -2.18810       -1.89040        1.24520
H         -1.88760       -3.64660        0.68540
Cl         1.03480       -1.54460       -0.58740
Cl         0.03650        0.85830        0.64320
Cl         2.85520        0.48890        0.31740
H          2.17710       -3.36850        0.96680
F          1.11580       -3.04100        4.36200
F          0.59610       -0.92820        4.94560
F         -1.03100       -2.44030        4.63570
