30
TSA8_9_OMe_Et_Et
C          2.73040       -0.37950       -1.13720
C          1.32310       -1.04690       -0.90820
O          2.59740        1.01530       -1.35470
H          3.40830       -0.56170       -0.27050
C          1.44620       -2.25110        0.04050
C          3.34880       -1.03250       -2.39030
C          2.44130       -0.78540       -3.61650
C          0.96970       -0.63310       -3.19460
O          0.67420       -1.48220       -2.11020
C          4.83810       -0.69840       -2.65010
H          3.32720       -2.12950       -2.20690
H          2.69810        0.12060       -4.20210
H          0.31540       -0.87350       -4.05790
H          0.73310        0.42050       -2.91880
C          2.16310        1.68310       -0.18500
H          2.71410        2.64260       -0.10410
H          2.35910        1.12950        0.76180
H          1.07720        1.89920       -0.26510
C          0.08170       -2.85230        0.36740
H          1.91250       -1.91800        0.99270
H          2.08820       -3.03610       -0.41370
H         -0.57000       -2.08880        0.84220
H          0.21020       -3.70070        1.07190
H         -0.41020       -3.23340       -0.55250
C          5.16120        0.77800       -2.89750
H          5.17850       -1.28360       -3.53210
H          5.43270       -1.03400       -1.77260
H          4.62550        1.17080       -3.78400
H          6.25060        0.88160       -3.08550
H          4.91830        1.39510       -2.00990
