23
TSA8_9_Me_CHF2_CH2F
C          1.78630        0.15370       -0.00340
C          1.42140        1.40240        0.36180
C          1.92590       -1.00180        0.94860
H          1.97560       -0.06220       -1.05140
C          1.23930        2.47070       -0.68580
C          4.21610        3.24720        2.11920
C          2.89430        3.21060        2.34220
C          2.16610        1.92240        2.60790
O          1.17580        1.71760        1.66240
C          4.93600        4.53740        1.85770
H          4.79610        2.32880        2.12360
H          2.31510        4.12990        2.33470
H          1.68840        2.00700        3.60590
H          2.86510        1.05910        2.63810
H          1.66220       -0.74120        1.99240
H          2.96870       -1.37940        0.92010
H          1.24080       -1.81390        0.62780
F         -0.06090        2.93780       -0.64180
F          2.10550        3.52020       -0.44910
H          1.43770        2.08330       -1.70820
F          5.53600        4.48370        0.61380
H          5.71700        4.68190        2.63260
H          4.24620        5.40840        1.88550
