23
TSA8_9_Me_CHF2_CH2F
C          2.84940        1.32420        0.61790
C          1.35660        1.73110        0.56380
C          2.92780       -0.18000        0.94060
H          3.30840        1.39780       -0.39290
C          1.00930        2.94800       -0.30420
C          3.65120        2.17250        1.65220
C          2.72670        2.82620        2.69660
C          1.49660        1.95890        2.96520
O          0.67240        1.74310        1.81900
C          4.51900        3.25270        0.98620
H          4.36150        1.50000        2.18260
H          2.35240        3.81060        2.35400
H          0.88700        2.48510        3.72900
H          1.79520        0.99140        3.41410
H          2.49800       -0.43620        1.92620
H          3.98690       -0.51600        0.92740
H          2.37940       -0.75980        0.16710
F         -0.36240        3.01370       -0.46220
F          1.44650        4.13460        0.24380
H          1.46790        2.82560       -1.30760
F          5.43000        2.67050        0.12220
H          5.08560        3.81130        1.76210
H          3.89900        3.97410        0.41740
