15
TSA8_9_OH_Cl_Br
C          1.95590        0.00160        0.12590
C          1.28050       -1.13200        0.33260
O          1.95980        0.58400       -1.09130
H          2.50540        0.46400        0.94120
Cl         1.29810       -1.85300        1.94510
C         -0.59030       -4.30380       -2.53240
C         -0.80370       -3.14690       -1.89650
C         -0.17210       -2.83930       -0.57100
O          0.59330       -1.69980       -0.69150
Br        -1.42080       -4.64540       -4.21990
H          0.05370       -5.06680       -2.10570
H         -1.45390       -2.40220       -2.34620
H          0.46350       -3.68410       -0.22380
H         -0.98170       -2.66840        0.17190
H          2.44380        1.40740       -1.24120
