17
TSA8_9_Br_I_CH2F
C          3.16780        0.99550        1.39490
C          1.69480        1.15510        1.11880
Br         3.90200       -0.29240        0.12690
H          3.65290        1.97350        1.18830
I          0.92590        3.02460        0.50780
C          3.43710        0.63490        2.88160
C          2.87060       -0.71990        3.25200
C          1.92170       -0.86080        4.18280
O          0.93020        0.20990        1.23270
C          4.93560        0.67770        3.22550
H          2.95500        1.42740        3.49910
H          3.24520       -1.60780        2.75090
H          1.51820       -0.00200        4.71000
H          1.54090       -1.84820        4.42250
F          5.65120       -0.28850        2.54070
H          5.07210        0.50490        4.31480
H          5.35390        1.67800        2.98390
