17
TSA8_9_Br_I_CH2F
C          3.21790        1.07550        1.69200
C          1.68070        1.07650        1.72860
Br         3.85130       -0.19630        0.34490
H          3.58410        2.08580        1.41030
I          0.78710        1.73820       -0.10170
C          3.69370        0.74630        3.12770
C          3.04120       -0.55910        3.60880
C          1.51790       -0.44800        3.43140
O          1.19370       -0.20340        2.07640
C          5.22100        0.71350        3.28840
H          3.32500        1.56340        3.78940
H          3.41560       -1.42200        3.01620
H          1.09210        0.34250        4.09210
H          1.05520       -1.40770        3.74130
F          5.79640       -0.31500        2.56460
H          5.47550        0.56650        4.35980
H          5.65690        1.68050        2.95890
