17
TSA8_9_H_F_CH2F
C          1.97300        0.00990       -0.23250
C          1.35150        0.58290       -1.27300
H          2.52030        0.58640        0.50500
H          1.92990       -1.06690       -0.10530
F          0.67440       -0.21510       -2.13900
C          4.24220        3.72890       -1.75480
C          3.55210        2.75340       -1.14670
C          2.08280        2.89450       -0.83650
O          1.34840        1.92740       -1.50050
C          5.70010        3.57000       -2.06220
H          3.74970        4.65440       -2.04040
H          4.06160        1.83500       -0.87050
H          1.71720        3.88920       -1.17110
H          1.90670        2.83170        0.25850
F          6.41320        3.38250       -0.89220
H          6.07600        4.48180       -2.57190
H          5.85230        2.69710       -2.73210
