17
TSA8_9_H_F_CH2F
C          3.23120        1.03130       -1.21430
C          1.68280        0.98230       -1.31050
H          3.55040        0.96340       -0.15110
H          3.66640        0.16280       -1.75500
F          1.33680        0.56990       -2.58530
C          3.69630        2.37110       -1.79070
C          3.08590        3.52250       -0.96100
C          1.79050        3.08370       -0.25100
O          1.02460        2.22980       -1.07220
C          5.22290        2.48110       -1.87590
H          3.29190        2.44110       -2.82520
H          3.76650        3.90110       -0.16680
H          1.20030        3.98330        0.01940
H          2.01920        2.56250        0.70720
F          5.79610        2.37780       -0.62000
H          5.50710        3.45610       -2.32600
H          5.62330        1.66960       -2.52020
