18
TSA8_9_OH_Br_CH2F
C          1.92480        0.05860        0.13340
C          1.16850       -1.02140        0.35250
O          2.49210        0.26450       -1.07270
H          2.08160        0.78180        0.92860
Br         0.39070       -1.24650        2.09990
C         -0.78130       -3.85950       -2.79740
C         -0.76390       -2.89530       -1.86540
C          0.11190       -2.98690       -0.64940
O          0.98850       -1.91970       -0.65240
C         -1.65060       -3.74930       -4.01260
H         -0.15580       -4.74100       -2.68550
H         -1.39270       -2.01680       -1.98500
H          0.70120       -3.92870       -0.65540
H         -0.53910       -2.99450        0.24770
H          3.03150        1.05050       -1.23510
F         -2.97960       -3.66420       -3.63950
H         -1.51170       -4.64570       -4.65290
H         -1.37120       -2.84660       -4.59600
