17
TSA8_9_H_NO2_OH
C          1.99830        1.30940        1.56110
C          0.99090        2.37670        1.18930
H          1.44320        0.35880        1.70880
H          2.73570        1.14510        0.74630
N          1.06000        3.05040        0.00690
C          2.76050        1.68760        2.84440
C          3.71990        0.59430        3.25340
C          3.29840       -0.62830        3.59380
O          0.08960        2.62750        1.97870
O          3.47550        2.87450        2.61390
H          2.02330        1.84610        3.66670
H          4.78480        0.80680        3.28870
H          2.24290       -0.88150        3.58630
H          4.01550       -1.38660        3.89060
O          0.24620        3.88400       -0.25720
O          2.01970        2.79790       -0.85820
H          3.70390        3.24990        3.50450
