17
TSA8_9_OH_NO2_F
C          1.71650        0.16310       -0.15070
C          1.37290        1.22740       -0.91920
O          2.14540        0.28840        1.12030
H          1.63680       -0.84200       -0.55450
N          0.89990        1.00750       -2.24960
C          4.36220        4.00560        0.44540
C          3.56300        2.93470        0.49480
C          2.06570        3.06360        0.62150
O          1.43980        2.52600       -0.48900
F          5.70560        3.84530        0.32390
H          3.95580        5.01090        0.49750
H          4.00980        1.94760        0.43570
H          1.78370        4.13670        0.67940
H          1.69710        2.59250        1.55480
H          2.37050       -0.49240        1.64470
O          0.59440        1.93920       -2.92970
O          0.80390       -0.20790       -2.74700
