17
TSA8_9_H_CF3_Br
C          1.88900        2.03600       -0.43870
C          0.80820        2.15520       -1.48370
H          1.44630        1.51970        0.43940
H          2.72570        1.41020       -0.82050
C          0.95590        1.48860       -2.82430
C          2.43650        3.41320       -0.01520
C          3.46570        3.28110        1.08110
C          3.16180        2.77820        2.28220
O         -0.20750        2.78540       -1.22760
Br         3.25020        4.31830       -1.53580
H          1.60670        4.05160        0.35890
H          4.48410        3.61490        0.90410
H          2.15590        2.44250        2.51420
H          3.92640        2.70510        3.04880
F         -0.16010        1.72340       -3.60880
F          2.07100        1.98280       -3.47430
F          1.10010        0.12490       -2.64830
