17
TSA8_9_H_CF3_Br
C          1.87650        0.19710       -0.15060
C          1.54840        1.34450       -0.78130
H          2.21860        0.16830        0.87480
H          1.79450       -0.76340       -0.64830
C          1.04710        1.33090       -2.20450
C          2.75060        5.23070        0.17610
C          3.21980        4.07700        0.66250
C          2.30000        2.93350        0.97260
O          1.63330        2.56820       -0.18560
Br         3.94040        6.67230       -0.22220
H          1.68780        5.36530       -0.00320
H          4.28570        3.96080        0.83520
H          1.56020        3.25620        1.73560
H          2.90860        2.11150        1.39490
F         -0.21260        1.89650       -2.24840
F          1.90210        2.08430       -2.98770
F          0.97820        0.05120       -2.73060
