20
TSA8_9_Me_CBr3_Cl
C          2.51310       -1.39660        0.32370
C          1.27110       -1.86020        1.07610
C          2.11050       -0.37950       -0.75590
H          3.17740       -0.86130        1.03730
C          1.06160       -1.52300        2.54180
C          3.34750       -2.55220       -0.30140
C          2.59170       -3.35630       -1.33490
C          2.97660       -3.40600       -2.61360
O          0.40040       -2.47080        0.47310
Cl         3.95440       -3.67410        0.94470
H          4.24560       -2.09230       -0.77140
H          1.71450       -3.92110       -1.03880
H          2.41120       -3.99780       -3.32600
H          3.84960       -2.86200       -2.96140
H          1.44100       -0.84140       -1.51270
H          3.01400        0.01140       -1.27050
H          1.57880        0.47980       -0.29480
Br         1.03990        0.40060        2.78320
Br        -0.63130       -2.21270        3.20800
Br         2.46360       -2.26250        3.65540
