21
TSA8_9_NH2_CBr3_NO2
C          3.05330        1.51450        0.30820
C          1.58180        1.75940       -0.17760
N          3.12410        0.27350        1.08620
H          3.74360        1.41010       -0.55750
C          1.41870        1.80510       -1.70710
C          3.52350        2.73440        1.14090
C          2.52900        3.03070        2.27780
C          1.08000        2.79540        1.81720
O          0.99080        2.91420        0.41330
N          4.87890        2.62180        1.65610
H          3.49190        3.60750        0.45180
H          2.70860        2.43790        3.20080
H          0.41190        3.52950        2.31220
H          0.71370        1.79290        2.14100
H          2.47770        0.30130        1.90560
H          2.84710       -0.53110        0.47880
Br        -0.45770        2.00030       -2.15360
Br         2.38690        3.30280       -2.47710
Br         2.03650        0.15790       -2.52840
O          5.53740        1.64390        1.46410
O          5.40770        3.63310        2.31140
