17
TSA8_9_CF3_I_Cl
C          1.63680       -1.01850        1.27100
C          0.86730        0.26690        1.05880
C          1.56080       -1.89730       -0.00260
H          2.70550       -0.74360        1.40930
I          1.87340        2.12290        1.08410
C          1.18620       -1.70930        2.59200
C         -0.25200       -2.17220        2.58480
C         -1.15730       -1.67460        3.43350
O         -0.33890        0.25310        0.86630
Cl         2.22910       -3.10150        2.99920
H          1.33620       -0.97020        3.41080
H         -0.56640       -2.93610        1.88210
H         -0.89070       -0.91150        4.15860
H         -2.18140       -2.03180        3.40480
F          2.32530       -3.04000        0.13940
F          0.25840       -2.26270       -0.29210
F          2.05900       -1.18400       -1.07920
