17
TSA8_9_CF3_I_Cl
C          1.83320       -0.01570        0.02710
C          1.12870       -0.00820        1.17210
C          2.19340       -1.24630       -0.76970
H          2.17480        0.93530       -0.37050
I          0.75570        1.87970        2.08590
C         -0.03980       -3.24180        4.31390
C         -0.40140       -2.67110        3.15960
C         -0.09900       -1.23300        2.85740
O          0.67350       -1.16430        1.71930
Cl        -0.41340       -4.92890        4.62590
H          0.48800       -2.67640        5.07600
H         -0.92970       -3.25860        2.41400
H          0.43980       -0.75550        3.70590
H         -1.05850       -0.69680        2.69120
F          3.56870       -1.32790       -0.86940
F          1.72150       -2.41570       -0.20090
F          1.65860       -1.12770       -2.03850
