21
TSA8_9_Me_CF3_OH
C          2.62750       -1.62800       -0.18020
C          1.36580       -1.98140        0.58420
C          2.35730       -0.43780       -1.10960
H          3.39850       -1.28220        0.54490
C          1.31900       -1.84860        2.08160
C          3.23660       -2.87170       -0.89240
C          2.34000       -3.54190       -1.91620
C          2.01190       -2.98600       -3.08640
O          0.37570       -2.37070       -0.01890
O          3.55970       -3.81410        0.09960
H          4.17850       -2.55060       -1.39830
H          1.97120       -4.54250       -1.70710
H          1.37840       -3.52810       -3.78110
H          2.37890       -2.00980       -3.37800
H          1.53920       -0.65000       -1.82540
H          3.28060       -0.16450       -1.66330
H          2.04340        0.44090       -0.50600
F          0.07530       -2.21820        2.56400
F          2.27990       -2.66410        2.65010
F          1.56610       -0.53610        2.43800
H          4.28910       -4.38250       -0.26330
