18
TSA8_9_I_Cl_OMe
C          3.15980        0.69800        1.65230
C          1.67700        0.74960        1.38230
I          4.05860       -0.28040       -0.05470
H          3.52910        1.74580        1.68180
Cl         0.86640        2.29790        1.20610
C          3.44480        0.05540        3.04650
C          3.11700       -1.42550        3.10510
C          2.14800       -1.90790        3.89050
O          1.02550       -0.27820        1.27710
O          4.73540        0.33100        3.58390
H          2.75970        0.58960        3.74320
H          3.67620       -2.12550        2.49360
H          1.55470       -1.25380        4.52170
H          1.94200       -2.97320        3.90370
C          5.80990       -0.06490        2.76280
H          6.72950       -0.06990        3.38270
H          5.97650        0.67760        1.95560
H          5.70220       -1.09920        2.37720
