18
TSA8_9_I_Cl_OMe
C          1.86630        0.10990        0.16150
C          1.39540        0.77150        1.24240
I          2.62330       -1.86680       -0.03170
H          1.85040        0.62880       -0.79230
Cl         0.79260        2.40260        0.98220
C          4.10420       -0.40900        4.35220
C          3.44880       -0.49650        3.17890
C          1.96520       -0.76300        3.11720
O          1.32050        0.30170        2.52180
O          5.43740       -0.14910        4.44920
H          3.55490       -0.54510        5.27860
H          3.98040       -0.36270        2.24460
H          1.55750       -0.87240        4.14500
H          1.73600       -1.70950        2.59720
C          6.29400        0.09260        3.39440
H          7.31290        0.27990        3.79060
H          5.96310        0.99170        2.83130
H          6.33170       -0.78830        2.71890
