18
TSA8_9_I_Cl_OMe
C          3.17070        0.68630        1.64210
C          1.61110        0.69010        1.62200
I          3.82810       -0.87160        0.28840
H          3.55220        1.62860        1.19260
Cl         1.01710        2.37220        1.69360
C          3.61310        0.56950        3.12240
C          3.06530       -0.71180        3.77400
C          1.74470       -1.13810        3.10740
O          0.99110       -0.01400        2.70380
O          4.97320        0.83940        3.43990
H          3.06110        1.39630        3.62150
H          3.75310       -1.58110        3.73770
H          1.16010       -1.74930        3.82520
H          1.92160       -1.79930        2.23280
C          5.89630        0.07080        2.70580
H          6.87890        0.13700        3.21600
H          6.03390        0.49670        1.69030
H          5.64080       -1.00820        2.68360
