20
TSA8_9_CH2F_I_CBr3
C          1.89540       -0.07790       -0.00720
C          1.18200       -1.20560       -0.13720
C          2.20870        0.84410       -1.15220
H          2.26160        0.20380        0.97680
I          0.81700       -2.35500        1.61790
C         -0.27500       -3.94200       -3.64260
C         -0.45450       -2.76670       -3.01560
C         -0.19330       -2.60630       -1.54610
O          0.70910       -1.58500       -1.35310
C         -0.53580       -4.10960       -5.11650
H          0.06100       -4.80360       -3.07170
H         -0.80550       -1.90230       -3.57370
H          0.19640       -3.55290       -1.11030
H         -1.15020       -2.34590       -1.04420
F          3.57870        0.96380       -1.28430
H          1.77750        1.84410       -0.93550
H          1.78600        0.48610       -2.11410
Br        -0.23030       -5.95240       -5.63470
Br        -2.37320       -3.65800       -5.54770
Br         0.65970       -2.98240       -6.14620
