20
TSA8_9_CH2F_I_CBr3
C          1.41900       -1.55300       -1.93690
C          1.14750       -1.57780       -0.41890
C          1.17300       -0.12800       -2.46120
H          2.49850       -1.76430       -2.09590
I          2.07010       -3.20680        0.65350
C          0.55790       -2.67070       -2.60290
C         -0.91070       -2.51060       -2.17380
C         -0.99950       -2.45830       -0.64460
O         -0.22580       -1.39650       -0.11030
C          0.69010       -2.84890       -4.14480
H          0.92220       -3.62730       -2.16570
H         -1.35050       -1.58410       -2.59760
H         -0.70750       -3.43340       -0.19900
H         -2.06120       -2.29590       -0.36570
F          1.96670        0.77020       -1.76880
H          0.11340        0.17650       -2.34090
H          1.45950       -0.05600       -3.52650
Br        -0.18840       -4.50090       -4.66970
Br        -0.13370       -1.44290       -5.21330
Br         2.55010       -3.01850       -4.67750
