19
TSA8_9_OH_Me_CN
C          1.59990       -0.05650        0.06320
C          1.48890       -1.06700        1.02580
O          1.60180       -0.16560       -1.28840
H          1.54320        0.98350        0.40000
C          1.68140       -0.70350        2.46510
C          1.54870       -5.10840       -0.49000
C          1.40360       -3.85300       -0.91280
C          0.46930       -2.95800       -0.16840
O          1.21460       -2.39790        0.84680
C          2.71000       -5.84820       -0.89260
H          0.87320       -5.53810        0.24910
H          2.12420       -3.43930       -1.61970
H         -0.35810       -3.52650        0.29450
H         -0.03980       -2.20660       -0.79860
H          1.38140       -0.97760       -1.73290
H          2.57280       -0.05460        2.65870
H          1.88010       -1.63480        3.05050
H          0.75710       -0.22750        2.80490
N          3.64480       -6.44690       -1.21500
