23
TSA8_9_CBr3_CF3_CBr3
C          2.97700       -0.02070       -1.98070
C          1.48590       -0.42940       -1.76760
C          3.34870        1.03580       -0.87700
H          3.60920       -0.90520       -1.75230
C          1.06880       -1.90040       -1.93850
C          3.25510        0.44400       -3.45940
C          1.95480        0.44440       -4.28690
C          0.80200        1.07910       -3.50990
O          0.51150        0.49110       -2.24350
C          4.34640       -0.37750       -4.22860
H          3.59310        1.50190       -3.42550
H          1.65740       -0.57100       -4.59520
H         -0.10650        1.01570       -4.14430
H          1.02580        2.15460       -3.36720
Br         3.03280        0.27810        0.88850
Br         5.21220        1.56070       -0.87370
Br         2.33860        2.69490       -0.96440
F         -0.19370       -2.06740       -1.40040
F          1.03040       -2.29600       -3.25680
F          1.94500       -2.71740       -1.24870
Br         6.10340       -0.32500       -3.41880
Br         3.89840       -2.26240       -4.40410
Br         4.58340        0.33750       -6.02310
