25
TSA8_9_OMe_OMe_CBr3
C          2.94550       -0.34540       -1.08860
C          1.90970       -1.41130       -0.81800
O          2.36970        0.94660       -0.95580
H          3.76410       -0.50930       -0.35290
O          2.14910       -2.30300        0.17880
C          3.54800       -0.52160       -2.51570
C          2.56040       -0.03560       -3.56410
C          2.02610       -0.84420       -4.48280
O          0.89130       -1.48020       -1.49250
C          4.92320        0.18350       -2.69720
H          3.75570       -1.60750       -2.66100
H          2.27660        1.01330       -3.57300
H          2.27500       -1.89910       -4.51820
H          1.32820       -0.44200       -5.21070
C          2.35890        1.36460        0.39070
H          3.37560        1.68200        0.70520
H          1.94560        0.58640        1.07000
H          1.68560        2.24350        0.47460
C          1.35550       -3.39370        0.45590
H          1.77960       -3.93670        1.32650
H          1.33940       -4.08090       -0.41690
H          0.32310       -3.06810        0.70310
Br         5.61310       -0.13600       -4.48760
Br         4.85820        2.10690       -2.41990
Br         6.25260       -0.55720       -1.48320
