25
TSA8_9_OMe_OMe_CBr3
C          1.58940        0.02420        0.03920
C          1.65730       -1.20650       -0.50890
O          1.32270        1.13300       -0.68960
H          1.74030        0.11570        1.11260
O          1.90540       -2.24430        0.32740
C          4.04310       -1.36250       -3.20560
C          3.17620       -0.34700       -3.04160
C          1.70470       -0.63270       -2.92210
O          1.48090       -1.46700       -1.84170
C          5.54060       -1.22590       -3.32330
H          3.64690       -2.37490       -3.25670
H          3.50560        0.68390       -2.98740
H          1.37550       -1.15450       -3.84560
H          1.10660        0.29650       -2.85440
C          1.18890        2.39420       -0.14380
H          1.94560        3.06810       -0.59120
H          1.31830        2.38850        0.96100
H          0.17580        2.78350       -0.37780
C          2.14970       -3.52710       -0.11220
H          2.31730       -4.18780        0.76400
H          3.06010       -3.54200       -0.74800
H          1.28160       -3.91010       -0.69180
Br         6.09320       -1.96320       -5.02560
Br         6.22500        0.59160       -3.19990
Br         6.35560       -2.26920       -1.91140
