24
TSA8_9_NH2_Et_NH2
C          1.88920       -0.27960       -0.05650
C          1.39800       -1.16910       -0.96740
N          2.34180        1.04290       -0.30680
H          1.93820       -0.59550        0.98230
C          0.95700       -2.52610       -0.46650
C          3.88470       -1.26610       -3.54850
C          3.26460       -0.12170       -3.22410
C          1.76180       -0.04610       -3.18940
O          1.25270       -0.98580       -2.31650
N          5.29790       -1.35180       -3.57870
H          3.30020       -2.14970       -3.79120
H          3.84650        0.76250       -2.98250
H          1.38350       -0.28310       -4.20600
H          1.37760        0.96490       -2.95960
H          2.34830        1.49730       -1.21910
H          2.67880        1.60360        0.48890
C          1.78910       -3.62730       -1.11950
H         -0.11540       -2.67330       -0.71680
H          1.06510       -2.62100        0.63650
H          1.67170       -3.60470       -2.22410
H          1.45450       -4.61920       -0.74990
H          2.86360       -3.49560       -0.86680
H          5.88750       -0.53760       -3.35020
H          5.74880       -2.24360       -3.82720
