21
TSA8_9_Cl_CN_Et
C          2.94580       -0.41570       -1.72960
C          1.79380       -1.37700       -1.41580
Cl         2.95040        0.93510       -0.55010
H          3.86950       -1.01070       -1.57740
C          1.79720       -2.16820       -0.21420
C          2.90640        0.05850       -3.22010
C          1.88530        1.16500       -3.41090
C          0.67930        0.96680       -3.93990
O          0.93540       -1.62570       -2.24890
C          4.28820        0.38440       -3.86800
H          2.60990       -0.85950       -3.77300
H          2.13030        2.16580       -3.06150
H          0.36250       -0.01620       -4.26410
H         -0.01030        1.80180       -4.01730
N          1.81430       -2.82060        0.73960
C          4.76100        1.84030       -3.86680
H          4.21910        0.11840       -4.94550
H          5.07110       -0.27540       -3.43200
H          4.05140        2.46590       -4.45190
H          5.73820        1.89600       -4.39800
H          4.87800        2.24830       -2.84560
