21
TSA8_9_Cl_CN_Et
C          1.68970       -0.07810       -0.03330
C          1.50940       -1.15210       -0.85150
Cl         1.75010        1.65120       -0.40190
H          1.57120       -0.22450        1.04610
C          1.43330       -2.42650       -0.23070
C          3.35360        0.25160       -4.54070
C          2.81470        0.30630       -3.31010
C          1.36870       -0.05860       -3.07370
O          1.29030       -1.13060       -2.20370
C          4.77800        0.66360       -4.84780
H          2.75390       -0.10040       -5.37400
H          3.43340        0.63740       -2.47790
H          0.87860       -0.32040       -4.04020
H          0.80580        0.81100       -2.68380
N          1.36580       -3.47550        0.23820
C          5.01640        2.15460       -4.59720
H          4.97870        0.47310       -5.92690
H          5.49700        0.06200       -4.25190
H          4.32630        2.76680       -5.21790
H          6.05940        2.41990       -4.87710
H          4.86650        2.40600       -3.52720
