17
TSA8_9_F_CF3_H
C          1.95640        0.79500       -1.90280
C          0.75470        0.01650       -2.37310
F          1.60840        1.50000       -0.76410
H          2.77710        0.08950       -1.64570
C          0.80300       -1.48400       -2.45510
C          2.45060        1.74510       -3.00650
C          3.71180        2.47550       -2.62100
C          3.76100        3.35520       -1.61560
O         -0.26670        0.61160       -2.68530
H          2.67640        1.13800       -3.91050
H          1.66120        2.48250       -3.27010
H          4.61500        2.28900       -3.19480
H          2.88340        3.58890       -1.02310
H          4.69400        3.85850       -1.38380
F         -0.40470       -1.98620       -2.90850
F          1.80420       -1.86780       -3.32790
F          1.06440       -2.00810       -1.20250
