20
TSA8_9_CF3_F_CBr3
C          2.13300        1.36990        1.67810
C          1.17580        1.68900        0.48540
C          2.13310       -0.15650        1.91660
H          3.16490        1.63110        1.36060
F          1.88990        2.17810       -0.59470
C          1.74270        2.28790        2.88420
C          0.23340        2.18280        3.18900
C         -0.58910        2.05960        1.89750
O          0.13320        2.59720        0.81070
C          2.60960        2.26010        4.17500
H          1.88820        3.31450        2.47480
H         -0.05030        1.35590        3.87350
H         -1.55240        2.59450        2.02360
H         -0.86180        0.99840        1.69120
F          3.13430       -0.51250        2.79710
F          0.91680       -0.59990        2.40170
F          2.39200       -0.80790        0.72220
Br         2.11720        3.76530        5.30420
Br         2.38610        0.67460        5.28080
Br         4.49440        2.48050        3.76040
