19
TSA8_9_I_CN_OMe
C          2.42760       -1.45850       -0.27270
C          1.33720       -1.21330        0.80580
I          2.05900       -0.07520       -1.88300
H          3.43190       -1.29280        0.17090
C          1.73320       -0.03300        1.59010
C          2.40110       -2.89010       -0.84440
C          2.13040       -3.92320        0.27340
C          0.88760       -3.46530        1.02450
O          1.20480       -2.28110        1.72040
O          3.53920       -3.08850       -1.68950
H          1.50900       -2.98620       -1.50090
H          2.92960       -3.95620        1.04400
H          0.60460       -4.24260        1.76260
H          0.01110       -3.33390        0.34510
N          2.09420        0.87420        2.21520
C          4.55240       -3.96630       -1.22360
H          4.47780       -4.93210       -1.76440
H          4.59850       -4.14570       -0.13750
H          5.54060       -3.51340       -1.44570
