23
TSA8_9_CF3_CBr3_Me
C          1.70810       -0.11040       -0.00440
C          1.48510       -1.33100       -0.57100
C          1.81510        1.23850       -0.67890
H          1.80160       -0.03690        1.07010
C          1.29520       -2.58300        0.27620
C          2.19190       -3.26140       -4.14890
C          2.94720       -2.36490       -3.49840
C          2.34630       -1.14880       -2.85860
O          1.41180       -1.54050       -1.91560
C          2.78750       -4.48500       -4.77890
H          1.11810       -3.11350       -4.22420
H          4.02080       -2.51230       -3.41880
H          1.85280       -0.53340       -3.64070
H          3.17200       -0.56790       -2.39190
F          3.09820        1.72640       -0.51850
F          1.49250        1.22610       -2.01750
F          0.93410        2.10210       -0.05550
Br         1.36490       -2.36420        2.21370
Br        -0.43170       -3.35740       -0.14090
Br         2.66230       -3.87440       -0.19550
H          2.33440       -5.38860       -4.32050
H          3.88890       -4.53020       -4.63670
H          2.56930       -4.48120       -5.86660
