16
TSA8_9_NO2_F_Cl
C          1.89000        0.02580       -0.11210
C          1.18860       -0.34220       -1.19740
N          2.04430        1.38020        0.30690
H          2.36230       -0.75610        0.47710
F          1.10350       -1.66690       -1.50190
C         -0.44810        1.80580       -4.98210
C         -0.72490        1.47840       -3.71520
C         -0.18410        0.23030       -3.08170
O          0.57160        0.57370       -1.98270
Cl        -1.10380        3.27690       -5.68190
H          0.18270        1.17240       -5.59840
H         -1.35950        2.12900       -3.12020
H          0.44210       -0.34400       -3.80080
H         -1.03880       -0.40560       -2.76440
O          2.68290        1.61920        1.28630
O          1.49340        2.37360       -0.35790
