16
TSA8_9_NO2_F_Cl
C          1.67730        0.85480       -1.87620
C          1.13180       -0.54660       -1.54460
N          1.44330        1.74180       -0.74090
H          2.77660        0.79170       -2.03310
F          1.56170       -1.50620       -2.45050
C          1.01620        1.31790       -3.19820
C         -0.50930        1.21300       -3.10270
C         -0.88080       -0.21060       -2.66910
O         -0.28330       -0.54300       -1.42510
Cl         1.53000        2.95540       -3.69490
H          1.34290        0.62820       -4.00770
H         -0.91940        1.93660       -2.36940
H         -0.60640       -0.95020       -3.45430
H         -1.98380       -0.26620       -2.55950
O          1.93230        1.47750        0.31600
O          0.74640        2.85220       -0.85700
