17
TSA8_9_CH2F_I_I
C          1.67990        1.08200       -1.32860
C          1.08630       -0.30490       -1.22800
C          1.42200        1.83980       -0.01010
H          2.77940        0.96520       -1.44200
I          2.33540       -2.00370       -1.33490
C          1.16080        1.80240       -2.60510
C         -0.32200        2.08790       -2.56770
C         -1.16680        1.55170       -3.45390
O         -0.11500       -0.46460       -1.07560
I          2.19580        3.64010       -3.00660
H          1.40260        1.14990       -3.47410
H         -0.71690        2.75080       -1.80450
H         -0.81510        0.88520       -4.23520
H         -2.22640        1.78000       -3.39930
F          2.04670        3.07180       -0.00100
H          1.83170        1.25030        0.83830
H          0.33560        1.98130        0.16830
