24
TSA8_9_Et_CF3_CN
C          1.59650        0.05550       -0.07350
C          1.32350        1.02380       -1.00840
C          1.69700        0.05930        1.44590
H          1.75600       -0.94400       -0.45600
C          1.36520        0.63040       -2.46910
C          1.82190        4.97250        0.99630
C          1.78280        3.63850        0.93190
C          0.57520        2.93160        0.39910
O          0.96750        2.32070       -0.77020
C          3.04200        5.66960        1.28870
H          0.95480        5.57160        0.75240
H          2.66570        3.04890        1.16590
H         -0.23980        3.65430        0.16530
H          0.09800        2.21790        1.08570
C          3.13170       -0.31520        1.77200
H          1.02290       -0.71970        1.88160
H          1.48030        0.99880        1.97660
H          3.39090       -1.27900        1.27910
H          3.27390       -0.41360        2.86500
H          3.80750        0.48070        1.39240
F          0.07190        0.38180       -2.87740
F          1.89370        1.65000       -3.24480
F          2.13820       -0.50100       -2.67840
N          4.01090        6.25630        1.52090
