14
TSA8_9_H_Cl_I
C          2.24060       -0.25950        0.13920
C          1.32610       -1.09440       -0.35600
H          2.78460        0.41250       -0.51750
H          2.45300       -0.23840        1.20310
Cl         0.47240       -2.16780        0.75800
C         -0.88270       -0.96000       -4.44830
C         -0.76700       -0.90820       -3.11750
C          0.13850       -1.83670       -2.36210
O          1.09190       -1.09070       -1.69510
I         -2.16860        0.37120       -5.46220
H         -0.32080       -1.68240       -5.03250
H         -1.34220       -0.17460       -2.56160
H          0.65780       -2.53520       -3.05310
H         -0.48320       -2.44260       -1.67250
