21
TSA8_9_OMe_CBr3_Br
C          1.34960        0.03430       -1.48750
C          2.47130       -0.98800       -1.49730
O          1.88350        1.28510       -1.06820
H          0.55770       -0.35900       -0.80510
C          2.37880       -2.25830       -0.67760
C          0.70320        0.16090       -2.88480
C         -0.54570        1.00110       -2.82230
C         -1.74760        0.49550       -3.11810
O          3.46430       -0.78080       -2.18120
Br         1.90320        0.95300       -4.19780
H          0.44050       -0.86170       -3.23590
H         -0.47360        2.04360       -2.53040
H         -1.86480       -0.54330       -3.41330
H         -2.63030        1.12360       -3.06230
C          1.17700        1.81810        0.03200
H          0.22030        2.27190       -0.29890
H          1.79370        2.62310        0.48180
H          1.01360        1.07050        0.83890
Br         2.22870       -1.83240        1.20830
Br         0.82730       -3.28940       -1.21660
Br         3.94380       -3.39020       -0.90610
