21
TSA8_9_OMe_CBr3_Br
C          1.08900        0.50190       -1.58700
C          1.52200       -0.97540       -1.88240
O          2.17020        1.18900       -0.97700
H          0.15280        0.50140       -0.97590
C          1.64800       -1.93440       -0.67460
C          0.76350        1.14320       -2.94610
C         -0.38130        0.38280       -3.63690
C         -0.43810       -1.08150       -3.18200
O          0.86080       -1.59770       -2.99030
Br         0.32010        3.03310       -2.84750
H          1.67190        1.04950       -3.58130
H         -1.37990        0.82140       -3.42400
H         -0.98130       -1.68130       -3.93980
H         -1.02480       -1.17300       -2.24100
C          1.74690        1.90670        0.16330
H          1.11060        2.77060       -0.11770
H          2.64550        2.30840        0.67450
H          1.22990        1.24980        0.89880
Br         2.89530       -1.28960        0.66390
Br        -0.05810       -2.26240        0.18890
Br         2.34790       -3.63770       -1.28430
