16
TSA8_9_F_F_NH2
C          1.05390       -0.15820        1.36840
C          1.55690        0.90800        0.43450
F          2.10290       -1.00610        1.68120
H          0.26730       -0.75020        0.85080
F          1.01760        1.03290       -0.80600
C          0.47390        0.44390        2.66240
C         -0.70180        1.34630        2.35070
C         -0.69500        2.64730        2.65380
O          2.45160        1.66280        0.78160
N          0.05060       -0.63020        3.56210
H          1.28150        1.01970        3.16930
H         -1.57600        0.92380        1.86340
H          0.16080        3.10840        3.13750
H         -1.55500        3.26430        2.41270
H         -0.72630       -1.18120        3.12810
H         -0.29420       -0.21740        4.45910
