16
TSA8_9_F_F_NH2
C          2.30520        0.25740       -0.21990
C          1.35480        1.08550        0.21360
F          3.02940       -0.48530        0.65860
H          2.50660        0.16780       -1.28260
F          0.64560        1.81410       -0.69190
C         -0.31360        0.41370        3.98330
C         -0.79020        1.10000        2.93520
C          0.10740        1.96370        2.09870
O          1.10980        1.19120        1.54340
N         -1.16550       -0.39780        4.77270
H          0.74070        0.47600        4.23960
H         -1.84500        1.03990        2.68160
H          0.56420        2.74600        2.74080
H         -0.50390        2.46890        1.31910
H         -2.17080       -0.48090        4.56050
H         -0.77850       -0.91500        5.57490
