23
TSA8_9_CH2F_Me_CBr3
C          2.36480        0.08170       -2.40270
C          0.92240        0.35670       -1.83750
C          3.41200        0.45540       -1.33650
H          2.47950       -1.01520       -2.54350
C          0.00880       -0.85040       -2.04980
C          2.49020        0.81080       -3.77520
C          2.19900        2.31970       -3.60510
C          1.16670        2.57560       -2.49810
O          0.27300        1.49230       -2.41070
C          3.74480        0.55150       -4.65810
H          1.64010        0.39500       -4.36240
H          3.09210        2.93820       -3.37690
H          0.61520        3.51110       -2.72430
H          1.64760        2.74820       -1.51010
F          4.65650       -0.03870       -1.66940
H          3.13340       -0.02740       -0.37510
H          3.47990        1.54640       -1.16330
H         -0.11690       -1.05370       -3.13480
H         -0.98710       -0.64780       -1.60330
H          0.43660       -1.74770       -1.55520
Br         3.42840        1.27100       -6.43680
Br         5.38600        1.38850       -4.03040
Br         4.06410       -1.35120       -4.88460
