22
TSA8_9_NH2_Br_Et
C          3.30180       -0.98970        0.98590
C          1.84830       -0.61620        1.18540
N          3.65110       -0.90150       -0.43480
H          3.91090       -0.24330        1.54190
Br         1.38720        0.90310        2.25210
C          3.61960       -2.38810        1.59420
C          2.90260       -3.51400        0.87220
C          1.99270       -4.28040        1.48140
O          0.95630       -1.26860        0.66590
C          5.13810       -2.68510        1.70230
H          3.26330       -2.34950        2.64960
H          3.12800       -3.71370       -0.17030
H          1.72930       -4.12420        2.52260
H          1.50140       -5.07710        0.93210
H          3.51660        0.08260       -0.76390
H          3.03420       -1.52090       -1.00850
C          5.90050       -2.81810        0.38040
H          5.26150       -3.64070        2.25820
H          5.62040       -1.88520        2.30560
H          5.47940       -3.63300       -0.24310
H          6.96030       -3.06670        0.59910
H          5.89810       -1.86920       -0.18880
