21
TSA8_9_CBr3_OMe_Br
C          1.10640       -0.99490        1.36610
C          2.33100       -0.74450        2.23890
C          1.47760       -1.13400       -0.15980
H          0.48630       -0.07460        1.43360
O          3.58610       -0.84050        1.72790
C          0.27600       -2.15710        2.01960
C         -1.07070       -2.41180        1.39120
C         -2.02650       -1.47730        1.35920
O          2.17170       -0.45890        3.41920
Br         1.25270       -3.83970        2.15440
H          0.06310       -1.87580        3.07490
H         -1.28590       -3.38860        0.96730
H         -1.86330       -0.49110        1.78190
H         -2.98690       -1.70100        0.90650
Br        -0.06630       -1.27580       -1.33050
Br         2.37090        0.48950       -0.76130
Br         2.65670       -2.61810       -0.60220
C          4.73560       -0.66040        2.46700
H          5.61660       -0.79640        1.80680
H          4.78340       -1.40960        3.28580
H          4.76070        0.36550        2.89290
