17
TSA8_9_Me_Br_F
C          1.64700       -1.76390       -0.40380
C          0.84720       -1.19660        0.78340
C          1.41800       -0.89060       -1.64790
H          2.73470       -1.71820       -0.17760
Br         1.44130       -1.83830        2.52890
C          1.23480       -3.23280       -0.62040
C         -0.28490       -3.34530       -0.74720
C         -0.93500       -2.68290        0.47450
O         -0.55700       -1.31880        0.59700
F          1.85500       -3.76580       -1.73700
H          1.54790       -3.82830        0.26490
H         -0.64150       -2.85250       -1.67570
H         -0.70100       -3.24880        1.40210
H         -2.03660       -2.73380        0.35020
H          0.34820       -0.84250       -1.93590
H          2.00350       -1.28380       -2.50580
H          1.76210        0.14590       -1.44380
