25
TSA8_9_NH2_CCl3_Et
C          2.91610       -0.84810       -1.98010
C          1.68980       -1.74330       -1.79950
N          2.74950        0.37310       -1.18600
H          3.80280       -1.37240       -1.56750
C          1.77690       -3.08950       -1.10450
C          3.23910       -0.45990       -3.46100
C          2.07850        0.26430       -4.11770
C          2.16430        1.54120       -4.50310
O          0.59660       -1.33200       -2.16050
C          3.64240       -1.65360       -4.35610
H          4.11430        0.22920       -3.43170
H          1.14710       -0.26270       -4.29340
H          1.31200        2.02240       -4.97170
H          3.07250        2.11630       -4.35340
H          1.89570        0.89760       -1.48520
H          2.64650        0.12420       -0.17520
Cl         2.82380       -4.21440       -1.99870
Cl         2.42780       -2.87820        0.54100
Cl         0.16970       -3.85940       -0.95700
C          4.97630       -2.29030       -3.95270
H          3.77920       -1.28290       -5.39700
H          2.83700       -2.41830       -4.37030
H          5.78790       -1.53270       -3.98810
H          5.22570       -3.10460       -4.66540
H          4.94240       -2.72430       -2.93680
