25
TSA8_9_NH2_CCl3_Et
C          1.71300       -0.13250        0.03720
C          1.46200       -1.10000       -0.88810
N          1.85230        1.24720       -0.27180
H          1.77860       -0.38800        1.08650
C          1.22470       -2.55070       -0.49210
C          3.79930       -0.48180       -4.88610
C          2.89760       -0.96780       -4.02180
C          2.27690       -0.09330       -2.97470
O          1.39450       -0.85140       -2.22690
C          4.45130       -1.35790       -5.92130
H          4.07390        0.56900       -4.84580
H          2.61700       -2.01680       -4.06680
H          1.72730        0.74160       -3.45930
H          3.10290        0.30700       -2.34780
H          1.68170        1.63140       -1.20870
H          2.04110        1.91300        0.49080
Cl         2.43520       -3.57320       -1.30680
Cl         1.31410       -2.90940        1.26020
Cl        -0.39240       -3.04200       -1.05580
C          5.29070       -2.45880       -5.27260
H          5.12050       -0.73260       -6.55020
H          3.67330       -1.80920       -6.57390
H          6.08150       -2.00960       -4.63400
H          5.77520       -3.07170       -6.06100
H          4.65890       -3.12630       -4.64950
