19
TSA8_9_NH2_Cl_CF3
C          1.70070       -0.10220        2.51910
C          1.32060        0.67000        1.27340
N          1.79490       -1.53520        2.22260
H          2.70950        0.24720        2.83190
Cl         2.41360        1.87780        0.61650
C          0.72980        0.18690        3.70260
C         -0.69810       -0.21730        3.38940
C         -1.69190        0.67660        3.35050
O          0.26200        0.45610        0.70400
C          1.18410       -0.50480        5.00460
H          0.76960        1.28470        3.89120
H         -0.92920       -1.25990        3.19410
H         -1.50960        1.72980        3.54100
H         -2.70270        0.35410        3.12480
H          2.53530       -1.69060        1.50060
H          0.88990       -1.89740        1.84590
F          1.15570       -1.88270        4.87310
F          2.47040       -0.11190        5.33030
F          0.34260       -0.14340        6.04280
