19
TSA8_9_NH2_Cl_CF3
C          2.08510        0.04820        0.23030
C          1.21460        0.66430        1.04330
N          2.57960       -1.25240        0.50790
H          2.41990        0.55160       -0.67180
Cl         0.65010        2.28020        0.60290
C         -0.21480        0.05170        5.44060
C         -0.38220       -0.36420        4.17340
C         -0.18730        0.56330        3.00950
O          0.78400        0.05100        2.17590
C         -0.40180       -0.84540        6.63430
H          0.06620        1.08310        5.63430
H         -0.66960       -1.39000        3.96190
H          0.11170        1.57800        3.35690
H         -1.14690        0.64370        2.45410
H          3.24030       -1.69450       -0.14710
H          2.28670       -1.77470        1.34580
F         -0.74560       -2.13520        6.26610
F          0.77590       -0.88640        7.35590
F         -1.40240       -0.32810        7.43500
