19
TSA8_9_NH2_Cl_CF3
C          1.73160       -0.05720        2.72940
C          1.20090        0.72610        1.51110
N          1.92840       -1.46590        2.36950
H          2.72260        0.35400        3.02370
Cl         1.36770        2.50580        1.65900
C          0.74130        0.10890        3.90900
C         -0.67710       -0.25530        3.44980
C         -1.02880        0.56700        2.20400
O         -0.11370        0.32990        1.14370
C          1.14800       -0.68380        5.16450
H          0.73040        1.18600        4.19040
H         -0.75910       -1.33800        3.21670
H         -1.08810        1.65000        2.44860
H         -2.04380        0.26990        1.86790
H          2.67100       -1.52950        1.63620
H          1.05540       -1.88620        1.98000
F          1.14260       -2.04620        4.91940
F          2.41450       -0.30520        5.57190
F          0.25760       -0.41700        6.18970
