18
TSA8_9_CCl3_CN_Cl
C          1.78310        0.05860        0.04570
C          1.49390        0.95340        1.04280
C          1.79980       -1.45770       -0.13640
H          2.13700        0.52560       -0.87280
C          1.80430        2.33360        0.74540
C          0.72470       -0.99300        5.20290
C          1.07340       -0.92960        3.91540
C          0.23940       -0.23820        2.87440
O          1.01180        0.75100        2.30430
Cl         1.78500       -1.79630        6.35040
H         -0.20220       -0.55570        5.55930
H          2.00940       -1.38040        3.60560
H         -0.65830        0.22950        3.33660
H         -0.16050       -0.93400        2.12460
Cl         1.47440       -2.55930        1.21340
Cl         0.71050       -1.90120       -1.47510
Cl         3.45460       -1.86440       -0.65280
N          2.05400        3.43540        0.50290
