26
TSA8_9_OMe_Et_NO2
C          1.34190       -0.06390        0.01540
C          1.33960       -1.39500       -0.20190
O          1.32050        0.80910       -1.01810
H          1.38080        0.31840        1.03340
C          1.41020       -2.35230        0.96100
C          2.06450       -1.28160       -4.26140
C          1.06070       -0.76810       -3.53350
C          0.38730       -1.54140       -2.43850
O          1.29080       -1.91780       -1.45920
N          2.69400       -0.53900       -5.30180
H          2.41020       -2.29130       -4.05460
H          0.70490        0.23930       -3.72960
H         -0.08450       -2.45610       -2.85580
H         -0.42510       -0.91650       -2.00770
C          1.33280        2.17240       -0.83730
H          1.33080        2.66900       -1.82940
H          2.24770        2.47770       -0.28550
H          0.43010        2.49010       -0.27350
C          0.16230       -3.23050        0.99580
H          1.48010       -1.80900        1.92940
H          2.31300       -2.99050        0.85650
H         -0.74590       -2.60000        1.11020
H          0.21990       -3.93080        1.85530
H          0.07650       -3.82320        0.06000
O          2.34460        0.57210       -5.56570
O          3.67510       -1.08740       -5.98630
