26
TSA8_9_OMe_Et_NO2
C          1.64600       -0.33800       -1.51870
C          0.77120       -1.42680       -0.81800
O          0.87610        0.85110       -1.60090
H          2.61220       -0.20530       -0.97080
C          1.43800       -2.02700        0.42320
C          2.01350       -0.82290       -2.93540
C          0.75010       -1.20040       -3.73150
C         -0.29240       -1.85930       -2.81290
O          0.34770       -2.45910       -1.70620
N          2.82350        0.13900       -3.66050
H          2.60190       -1.75970       -2.80060
H          0.26120       -0.34100       -4.24030
H         -0.86870       -2.61370       -3.38620
H         -1.03810       -1.10620       -2.46110
C          1.46480        1.89160       -0.85050
H          2.32850        2.32340       -1.40220
H          1.76130        1.56330        0.17070
H          0.71120        2.69420       -0.71210
C          0.48790       -2.96990        1.15870
H          1.71660       -1.20380        1.11660
H          2.35740       -2.57770        0.13080
H         -0.43140       -2.42630        1.46500
H          0.98640       -3.36770        2.06750
H          0.20530       -3.82590        0.51000
O          2.39000        1.21570       -3.93820
O          4.04580       -0.17920       -4.03120
