19
TSA8_9_NO2_Br_CF3
C          1.95710        0.13490        0.03070
C          1.48230        1.29210       -0.51540
N          1.87120       -0.36370        1.36750
H          2.47540       -0.51890       -0.66740
Br         1.79470        1.49880       -2.39460
C          2.12520        4.31790        2.50200
C          1.86000        3.07950        2.05090
C          0.56820        2.75960        1.33830
O          0.81480        2.34580        0.04670
C          3.40210        4.68130        3.21150
H          1.39630        5.11070        2.35740
H          2.58540        2.28610        2.19180
H         -0.05720        3.67540        1.27350
H         -0.06530        2.03660        1.87760
O          2.39520       -1.40610        1.61810
O          1.15730        0.21080        2.30200
F          4.25470        3.59770        3.33620
F          4.04570        5.67560        2.49910
F          3.09760        5.15720        4.47280
