22
TSA8_9_CCl3_OMe_CN
C          2.31680       -1.54790       -0.55660
C          0.94890       -1.69880        0.19510
C          2.36870       -0.26010       -1.46440
H          3.08250       -1.37020        0.23190
O          1.09420       -1.56280        1.60300
C          2.61590       -2.91840       -1.22670
C          1.45860       -3.38320       -2.12960
C          0.09990       -2.91210       -1.57220
O          0.15370       -2.82860       -0.16850
C          3.92300       -3.06230       -1.87880
H          2.63640       -3.65780       -0.40290
H          1.53850       -3.08970       -3.19760
H         -0.69830       -3.61360       -1.88590
H         -0.20620       -1.92720       -1.98860
Cl         1.62810       -0.39350       -3.08430
Cl         1.56490        1.11900       -0.65380
Cl         4.06140        0.23610       -1.73040
C          1.29520       -2.81270        2.23790
H          1.84530       -2.65210        3.18800
H          1.91700       -3.52010        1.65220
H          0.31330       -3.27310        2.47660
N          4.94450       -3.21510       -2.40090
