20
TSA8_9_CHF2_CH2F_H
C          2.61500       -1.12270       -0.95950
C          1.33990       -1.87010       -0.62330
C          2.32520        0.37720       -1.16030
H          3.29760       -1.18160       -0.08170
C          1.19140       -2.54400        0.70960
C          3.38240       -1.81920       -2.11740
C          2.64700       -1.98000       -3.42680
C          2.39170       -0.96700       -4.25830
O          0.42950       -1.92910       -1.43700
H          3.61300       -2.84600       -1.75690
H          4.35640       -1.31610       -2.30060
H          2.34450       -2.97970       -3.72530
H          1.87350       -1.15550       -5.19310
H          2.70850        0.04460       -4.03470
F          3.49080        1.05690       -1.46670
F          1.38070        0.60420       -2.14250
H          1.92020        0.79260       -0.21270
F         -0.04250       -3.16590        0.81000
H          1.28200       -1.79110        1.51970
H          1.98850       -3.30700        0.82810
