20
TSA8_9_I_OMe_NO2
C          3.45150       -1.36220        0.18470
C          2.21430       -1.60180        1.01060
I          3.19840        0.45660       -0.94600
H          4.29350       -1.18730        0.88950
O          2.31780       -1.60790        2.36400
C          3.80480       -2.61040       -0.66670
C          2.77790       -2.87810       -1.74720
C          2.05060       -3.99900       -1.77560
O          1.13600       -1.79770        0.46560
N          5.12110       -2.47840       -1.26690
H          3.83990       -3.47570        0.03600
H          2.62480       -2.13950       -2.52850
H          2.16700       -4.76540       -1.01600
H          1.32540       -4.15270       -2.56800
C          1.27980       -1.92570        3.21290
H          1.62790       -1.83240        4.26210
H          0.95580       -2.97390        3.03680
H          0.42440       -1.23530        3.05410
O          5.34600       -1.62540       -2.07210
O          6.07540       -3.32230       -0.93880
