20
TSA8_9_I_OMe_NO2
C          3.20280       -1.24080        0.05550
C          1.72850       -1.53540        0.45050
I          3.16330        0.17170       -1.56850
H          3.73780       -0.74020        0.89150
O          1.37710       -1.09860        1.75000
C          3.89190       -2.57930       -0.28140
C          3.10470       -3.35360       -1.35570
C          1.58760       -3.14370       -1.18800
O          1.27130       -2.85510        0.15820
N          5.28950       -2.42960       -0.64380
H          3.83580       -3.19170        0.64660
H          3.37560       -3.08370       -2.39930
H          1.04870       -4.05180       -1.52790
H          1.23090       -2.31660       -1.84690
C          1.80210       -2.03010        2.72130
H          1.67910       -1.56900        3.72250
H          2.87990       -2.28170        2.62380
H          1.16750       -2.94250        2.69810
O          5.60650       -1.83980       -1.63290
O          6.22160       -2.97450        0.10780
