20
TSA8_9_CF3_H_CCl3
C          1.78550       -1.70000       -1.33910
C          0.79190       -0.66420       -1.90200
C          2.74980       -0.99830       -0.35220
H          1.19860       -2.42170       -0.73010
H         -0.08260       -1.14060       -2.40270
C          2.40450       -2.45840       -2.56390
C          2.95590       -1.45190       -3.59210
C          1.87610       -0.41710       -3.92920
O          1.43660        0.25770       -2.76370
C          3.42290       -3.59840       -2.27620
H          1.53670       -2.95920       -3.05290
H          3.85740       -0.93490       -3.20580
H          1.02040       -0.89340       -4.45990
H          2.30760        0.32650       -4.63120
F          3.51600       -1.92440        0.32620
F          3.57760       -0.09200       -0.98760
F          2.00800       -0.31480        0.59630
Cl         3.71480       -4.51710       -3.78040
Cl         5.02380       -3.02580       -1.72190
Cl         2.77000       -4.75210       -1.08100
