23
TSA8_9_CBr3_CCl3_CCl3
C          2.08420       -0.16970       -0.23610
C          1.58770       -1.35390        0.21370
C          1.70780        0.63700       -1.46490
H          2.86830        0.31110        0.33430
C          2.05790       -1.96910        1.53350
C         -0.45040       -4.97950       -1.81990
C          0.49670       -4.31070       -1.14220
C          0.91770       -2.91610       -1.51380
O          0.63650       -2.04200       -0.47610
C         -0.84090       -6.38710       -1.44790
H         -0.94770       -4.50090       -2.65960
H          0.98190       -4.79190       -0.30120
H          0.37210       -2.59240       -2.42140
H          2.00450       -2.92370       -1.75280
Br         1.34660        2.44680       -0.87980
Br         3.23560        0.68670       -2.65140
Br         0.15320        0.10880       -2.49760
Cl         2.85500       -3.53160        1.23860
Cl         3.21020       -0.98310        2.49010
Cl         0.63410       -2.24470        2.56800
Cl        -2.14030       -6.96320       -2.52160
Cl         0.55880       -7.47890       -1.62450
Cl        -1.42840       -6.45370        0.23500
