23
TSA8_9_CBr3_CCl3_CCl3
C          0.85350       -2.15460       -0.98420
C          1.33450       -2.71380        0.43370
C         -0.19550       -0.98110       -1.05040
H          1.74460       -1.66230       -1.42690
C          1.73690       -1.77290        1.60600
C          0.57710       -3.40730       -1.93630
C          1.76200       -4.41680       -1.83940
C          2.88280       -3.91570       -0.94990
O          2.36250       -3.71380        0.34450
C         -0.77800       -4.20810       -1.82340
H          0.61750       -3.03010       -2.97890
H          1.43860       -5.36340       -1.34990
H          3.39790       -3.01430       -1.34640
H          3.66190       -4.70500       -0.89770
Br         0.54300        0.71790       -0.45430
Br        -0.64160       -0.53220       -2.89270
Br        -1.83570       -1.27710       -0.04230
Cl         2.31140       -2.76270        2.98110
Cl         3.08510       -0.69810        1.15050
Cl         0.38650       -0.84890        2.30640
Cl        -2.21140       -3.33060       -2.41040
Cl        -0.75460       -5.65270       -2.88630
Cl        -1.08730       -4.77140       -0.15680
