20
TSA8_9_Br_CH2F_CCl3
C          1.89950        0.26370       -0.06310
C          1.49170        1.44730        0.43400
Br         2.13250       -1.30300        1.01760
H          2.08310        0.15020       -1.12690
C          1.27060        2.62020       -0.48250
C          3.01880        3.86740        3.61390
C          2.99090        2.96670        2.61610
C          2.21960        1.67870        2.73560
O          1.24110        1.60680        1.75890
C          3.78180        5.16180        3.50200
H          2.47580        3.66080        4.53250
H          3.53550        3.16260        1.69640
H          1.72250        1.61770        3.72680
H          2.92150        0.82470        2.65910
F         -0.04420        3.03490       -0.39240
H          1.49230        2.36770       -1.54190
H          1.93370        3.45700       -0.18050
Cl         3.61100        6.09670        5.00990
Cl         5.51560        4.84580        3.23040
Cl         3.14290        6.14240        2.15720
