22
TSA8_9_NH2_CH2F_CBr3
C          3.19190        1.20370        0.36950
C          1.68260        1.52120        0.19510
N          3.33080       -0.17950        0.83910
H          3.67860        1.24220       -0.62920
C          1.33490        2.64650       -0.78430
C          3.90480        2.17120        1.36930
C          2.88200        3.03870        2.11940
C          1.66380        2.19050        2.50790
O          0.94700        1.62290        1.41160
C          5.05450        3.01010        0.74800
H          4.39130        1.54120        2.14790
H          2.53940        3.90130        1.51920
H          0.97020        2.84530        3.07450
H          1.98710        1.37610        3.19030
H          2.84780       -0.31370        1.75710
H          2.89970       -0.83130        0.14330
F         -0.02890        2.65340       -1.00800
H          1.84610        2.46370       -1.75270
H          1.63010        3.64240       -0.41400
Br         5.93230        4.07330        2.11820
Br         6.41610        1.85080       -0.01370
Br         4.45860        4.22160       -0.64950
