18
TSA8_9_Cl_H_OMe
C          1.83920        1.70900        1.37640
C          0.80100        2.62860        0.79300
Cl         0.99440        0.23970        1.94730
H          2.53330        1.41210        0.56010
H          0.84430        2.89250       -0.25870
C          2.65230        2.43260        2.48190
C          3.78930        1.57870        3.02270
C          3.60560        0.48270        3.76650
O         -0.09290        3.08330        1.48970
O          3.19410        3.61030        1.90190
H          1.94550        2.69470        3.30470
H          4.81150        1.89030        2.82670
H          2.61870        0.13150        4.03740
H          4.46520       -0.06920        4.13290
C          3.64750        4.52680        2.88300
H          3.27610        5.53880        2.62110
H          4.75720        4.54000        2.88470
H          3.29710        4.31570        3.91930
