18
TSA8_9_OH_Me_Br
C          1.83280        0.16210       -0.16780
C          1.44470        1.28490       -0.81680
O          2.23600        0.16670        1.11790
H          1.81260       -0.79210       -0.68850
C          0.98290        1.18530       -2.24360
C          4.23930        4.05600        0.90980
C          3.49920        2.94640        0.82060
C          1.99420        2.98330        0.91500
O          1.42620        2.53500       -0.26310
Br         6.14380        3.96140        0.77100
H          3.77790        5.02800        1.05610
H          3.99760        1.99450        0.67010
H          1.65270        4.02810        1.07760
H          1.63020        2.39460        1.78170
H          2.49830       -0.65450        1.55580
H          1.63340        1.81900       -2.88180
H         -0.06230        1.55170       -2.31790
H          1.01860        0.14470       -2.63230
