18
TSA8_9_CCl3_Cl_CN
C          1.56710        0.04110        0.01000
C          1.29160        1.49250        0.19060
C          1.65720       -1.23990        0.80550
H          1.49240       -0.18570       -1.03190
Cl         1.70360        2.43110       -1.25680
C          1.43180        2.54970        4.53060
C          1.53910        1.79970        3.42710
C          0.41710        1.72760        2.42410
O          0.82760        2.31040        1.24060
C          2.58010        2.72930        5.37860
H          0.50540        3.07200        4.76280
H          2.47430        1.28820        3.20990
H         -0.43480        2.32050        2.77790
H         -0.01700        0.72280        2.26310
Cl         1.42260       -1.29740        2.56800
Cl         0.75350       -2.61900        0.14520
Cl         3.36480       -1.64230        0.48720
N          3.52390        2.84770        6.03680
