18
TSA8_9_CCl3_Cl_CN
C          2.19410        1.06700        1.49680
C          0.95700        1.61150        0.69730
C          2.22130       -0.51360        1.54810
H          3.09180        1.35240        0.90450
Cl         1.48230        2.59240       -0.70240
C          2.24940        1.86050        2.83630
C          0.92800        1.75350        3.61830
C         -0.26260        1.68120        2.65120
O          0.04250        2.38200        1.46840
C          3.41430        1.63970        3.70190
H          2.31490        2.92930        2.53450
H          0.85700        0.90850        4.33590
H         -1.15770        2.12060        3.13600
H         -0.52880        0.62480        2.40940
Cl         1.64360       -1.25920        3.06200
Cl         1.25830       -1.25410        0.22740
Cl         3.89090       -1.10080        1.30920
N          4.31580        1.49990        4.41400
