21
TSA8_9_CCl3_CN_CH2F
C          1.62390        1.46980       -1.62780
C          2.28810        0.42630       -2.52490
C          2.24830        1.62980       -0.16890
H          0.68850        0.91380       -1.44150
C          2.66300       -0.86910       -1.99330
C          1.10490        2.75080       -2.39840
C         -0.03600        3.39120       -1.63890
C         -1.19840        2.74220       -1.49230
O          2.26180        0.55280       -3.73620
C          2.13310        3.81060       -2.87520
H          0.65440        2.39700       -3.35230
H          0.06900        4.38610       -1.21820
H         -1.34440        1.75580       -1.92790
H         -2.02040        3.19250       -0.95130
Cl         2.34140        3.28680        0.47120
Cl         1.21760        0.76780        1.01720
Cl         3.90500        0.97270        0.01680
N          2.97240       -1.90050       -1.58300
F          2.69560        4.56210       -1.86590
H          1.59830        4.53340       -3.53330
H          2.94020        3.35100       -3.47910
