19
TSA8_9_OMe_Br_OH
C          1.49290        0.17540        0.08920
C          1.07460       -1.09020        0.01700
O          1.67380        0.88750       -1.04720
H          1.66070        0.63640        1.05960
Br         0.78300       -2.06790        1.64790
C         -0.91930       -2.96330       -3.74490
C         -0.89330       -2.35430       -2.55050
C          0.08570       -2.74240       -1.48120
O          0.86430       -1.63850       -1.20650
O         -1.79100       -2.58130       -4.70530
H         -0.23170       -3.77460       -3.96150
H         -1.58620       -1.54200       -2.34500
H          0.74220       -3.57150       -1.82190
H         -0.48170       -3.08510       -0.59050
C          1.97340        2.22990       -1.03990
H          2.06850        2.58540       -2.08660
H          2.93030        2.40790       -0.50760
H          1.15500        2.79720       -0.54550
H         -2.41210       -1.84890       -4.58130
