19
TSA8_9_OMe_Br_OH
C          0.41070       -0.28880       -1.52470
C          1.14410       -1.16080       -0.47100
O          1.32320        0.52770       -2.23600
H         -0.35670        0.31910       -0.98610
Br         0.29220       -1.17970        1.28530
C         -0.33570       -1.17780       -2.53810
C         -0.93620       -2.35580       -1.78280
C          0.24220       -3.20380       -1.24910
O          1.42590       -2.46920       -0.92850
O         -1.32410       -0.42920       -3.19320
H          0.39270       -1.57830       -3.28460
H         -1.56200       -1.96010       -0.95280
H          0.52360       -3.88400       -2.08000
H         -0.08260       -3.83980       -0.39840
C          1.64320        1.67690       -1.48200
H          2.36970        2.28290       -2.06110
H          2.13520        1.40800       -0.52140
H          0.74720        2.31530       -1.31660
H         -1.62260       -0.97220       -3.96900
