22
TSA8_9_NO2_Et_H
C          2.66930       -0.56520        1.10560
C          1.39490        0.11460        1.56970
N          2.41290       -1.36810       -0.08010
H          3.41090        0.22170        0.83830
C          1.30330        1.61470        1.66850
C          3.32570       -1.39170        2.23540
C          2.44980       -2.48250        2.80360
C          2.07610       -2.48330        4.08750
O          0.41710       -0.55820        1.86170
H          4.26120       -1.85240        1.85220
H          3.61350       -0.68310        3.04420
H          2.11560       -3.29270        2.16590
H          2.38740       -1.69400        4.76530
H          1.44800       -3.28090        4.46960
O          2.96920       -1.10880       -1.10500
O          1.54520       -2.35720       -0.05420
C          2.26620        2.15930        2.72130
H          0.27130        1.90660        1.96320
H          1.52470        2.06630        0.67800
H          2.03280        1.71830        3.71460
H          2.15890        3.26200        2.78830
H          3.31910        1.92540        2.46040
