22
TSA8_9_CBr3_CH2F_NH2
C          1.40740       -0.43480        0.06430
C          2.04160       -1.06900        1.08850
C          1.97790       -0.13020       -1.30660
H          0.39520       -0.08790        0.22620
C          3.46260       -1.56510        1.01070
C         -0.73630       -2.54820        4.57480
C         -0.18150       -2.60800        3.35610
C          0.06300       -1.37640        2.53420
O          1.42090       -1.28180        2.28500
N         -0.94560       -3.72400        5.33680
H         -1.03110       -1.59110        4.99630
H          0.10890       -3.56940        2.94120
H         -0.27060       -0.46430        3.07390
H         -0.52870       -1.47940        1.60130
Br         0.64550        0.80340       -2.36460
Br         3.52460        1.04170       -1.19910
Br         2.41850       -1.75930       -2.26760
F          4.21860       -0.94270        1.98620
H          3.94960       -1.39630        0.03590
H          3.46670       -2.65930        1.19750
H         -0.66910       -4.64950        4.97720
H         -1.37260       -3.65760        6.27160
