22
TSA8_9_CBr3_CH2F_NH2
C          1.45570       -2.01370        1.39790
C          2.09690       -0.66640        1.90010
C          0.91510       -1.87700       -0.06880
H          2.25330       -2.78870        1.33570
C          3.62290       -0.74880        1.98630
C          0.47120       -2.51040        2.50100
C         -0.50190       -1.41710        2.97770
C          0.20180       -0.05370        3.04040
O          1.59500       -0.23540        3.16040
N         -0.22460       -3.75330        2.17630
H          1.12410       -2.71800        3.38050
H         -1.44150       -1.32650        2.39410
H         -0.18940        0.52160        3.90410
H         -0.02860        0.56800        2.14590
Br        -0.62160       -0.70930       -0.27970
Br         2.29180       -1.17880       -1.25080
Br         0.45460       -3.60130       -0.84120
F          4.13800        0.48310        2.34450
H          4.06020       -1.04630        1.01260
H          3.91590       -1.49970        2.75140
H         -0.99760       -3.55560        1.50210
H         -0.66950       -4.12860        3.04500
