20
TSA8_9_CCl3_CF3_Cl
C          1.29730       -0.79190        1.36370
C          2.69700       -1.33480        1.69370
C          1.17460       -0.12240       -0.04580
H          1.15430        0.06410        2.06440
C          3.43650       -2.45080        0.98680
C          0.13350       -1.76470        1.73630
C          0.10630       -3.07370        0.99090
C         -0.90590       -3.41340        0.18690
O          3.29060       -0.80330        2.62180
Cl         0.18600       -2.14020        3.48300
H         -0.82410       -1.22650        1.57160
H          0.91540       -3.78020        1.12660
H         -1.74740       -2.74600        0.02690
H         -0.89390       -4.37180       -0.32150
Cl         1.17090       -1.23650       -1.43740
Cl        -0.34180        0.81800       -0.15030
Cl         2.50570        1.04440       -0.28800
F          4.63590       -1.95680        0.50810
F          3.70310       -3.45870        1.89500
F          2.75120       -2.99440       -0.07330
