20
TSA8_9_CH2F_CF3_F
C          2.80860        1.00700        0.57000
C          1.39770        1.68680        0.64370
C          2.68690       -0.49030        0.90140
H          3.21770        1.06520       -0.46360
C          1.02510        2.40340       -0.65650
C          3.76730        1.75250        1.51550
C          3.20710        1.81380        2.94360
C          1.67730        1.97190        2.92400
O          1.26850        2.60350        1.73050
F          5.04210        1.21450        1.50970
H          3.83530        2.79880        1.14450
H          3.45840        0.92200        3.55720
H          1.35740        2.56440        3.80560
H          1.16550        0.98740        3.02590
F          3.91630       -1.11350        0.78140
H          1.98480       -0.97020        0.18670
H          2.30180       -0.66060        1.92620
F         -0.24960        2.92700       -0.54500
F          1.91580        3.43210       -0.90800
F          1.04570        1.51060       -1.71300
