16
TSA8_9_OH_I_CN
C          1.60920        0.03430       -0.01660
C          1.56060        1.41080       -0.36770
O          1.63050       -0.52760        1.20230
H          1.47610       -0.67000       -0.82260
I          1.28050        1.85490       -2.43130
C          2.86010        2.83390        3.53340
C          2.36830        2.04020        2.57920
C          1.15090        2.41380        1.76960
O          1.47800        2.55150        0.43220
C          4.05690        2.44150        4.23590
H          2.37970        3.77670        3.77480
H          2.88210        1.11210        2.38030
H          0.74380        3.37510        2.12220
H          0.31540        1.68760        1.88770
H          0.98270       -0.38810        1.91130
N          5.01840        2.09940        4.78150
