26
TSA8_9_CBr3_Me_Et
C          1.56270       -1.86880        1.06210
C          2.96000       -1.85070        1.71590
C          1.55050       -1.83720       -0.51750
H          1.13720       -0.86780        1.30580
C          4.27710       -2.11390        1.03080
C          0.65080       -2.88040        1.88100
C         -0.82380       -2.81740        1.54090
C         -1.73330       -2.30200        2.37470
O          3.02290       -1.59630        2.91010
C          1.12700       -4.35780        2.02490
H          0.74830       -2.48820        2.92000
H         -1.17010       -3.21520        0.59490
H         -1.44990       -1.89360        3.33960
H         -2.78020       -2.28560        2.08770
Br        -0.21200       -1.48850       -1.25610
Br         2.57130       -0.29460       -1.13530
Br         2.25600       -3.37740       -1.46550
H          4.76990       -2.98370        1.51370
H          4.93140       -1.22450        1.14740
H          4.20440       -2.32740       -0.04200
C          0.67390       -5.36530        0.96320
H          0.68380       -4.74660        2.96950
H          2.22910       -4.39420        2.15320
H         -0.43330       -5.43180        0.93050
H          1.05880       -6.37090        1.23520
H          1.03830       -5.13700       -0.03950
