26
TSA8_9_CBr3_Me_Et
C          1.34490       -2.38670        0.46070
C          1.47260       -0.98930        1.14700
C          2.19350       -2.52830       -0.84990
H          0.28620       -2.40330        0.12580
C          2.85720       -0.60990        1.68250
C          1.56380       -3.48480        1.55730
C          0.89730       -3.05420        2.88210
C         -0.09990       -1.90560        2.71750
O          0.48140       -0.73940        2.14510
C          1.17230       -4.93120        1.16900
H          2.64460       -3.53010        1.80640
H          0.52460       -3.90250        3.49530
H         -0.46730       -1.63830        3.73170
H         -0.97900       -2.22540        2.11740
Br         2.03410       -0.92400       -1.93880
Br         4.08580       -2.87030       -0.54790
Br         1.53950       -3.94810       -2.00520
H          3.18610       -1.30270        2.48360
H          2.81710        0.41740        2.10180
H          3.60440       -0.59040        0.86870
C         -0.30860       -5.12330        0.83490
H          1.42310       -5.60430        2.01840
H          1.79360       -5.27330        0.32060
H         -0.94560       -4.85380        1.70250
H         -0.48770       -6.19080        0.58720
H         -0.60840       -4.51340       -0.03970
