20
TSA8_9_Et_Br_F
C          2.27550        1.34140        0.11680
C          0.89500        1.59260       -0.57470
C          2.12990        0.20990        1.16790
H          3.00020        0.96830       -0.64010
Br         1.10050        1.62490       -2.50510
C          2.77430        2.69020        0.67080
C          1.75760        3.28910        1.65100
C          0.31780        2.98270        1.20240
O          0.26240        2.81590       -0.19700
F          4.03220        2.62270        1.23910
H          2.84450        3.38420       -0.19580
H          1.88210        2.92510        2.69360
H         -0.34620        3.81350        1.51790
H         -0.08820        2.07580        1.70250
C          3.45470       -0.22660        1.79480
H          1.70790       -0.68000        0.65080
H          1.43160        0.48750        1.98120
H          4.17070       -0.54120        1.00620
H          3.27270       -1.08910        2.47040
H          3.90120        0.58220        2.40500
