16
TSA8_9_Br_Cl_NH2
C          1.90840       -0.14830       -2.08410
C          0.69660       -1.00800       -2.32970
Br         1.52950        1.01280       -0.56580
H          2.76440       -0.80190       -1.80680
Cl         0.80960       -2.75570       -2.19150
C          2.29100        0.67810       -3.33490
C          3.51220        1.51870       -3.04020
C          3.49030        2.85300       -3.11960
O         -0.37390       -0.49960       -2.62490
N          2.59550       -0.20620       -4.46290
H          1.43270        1.33420       -3.61040
H          4.43670        1.02310       -2.75720
H          2.58650        3.38550       -3.39990
H          4.38710        3.42350       -2.90180
H          2.87590        0.37390       -5.28740
H          1.73520       -0.72990       -4.74360
