16
TSA8_9_Br_Cl_NH2
C          1.77760       -0.05060       -0.14070
C          1.45310       -0.04860       -1.44060
Br         1.99330        1.56710        0.86420
H          1.90910       -0.99260        0.38290
Cl         1.23020       -1.57680       -2.27930
C          2.32550        0.73940       -4.86640
C          2.99290        1.10220       -3.76210
C          2.31040        1.84950       -2.64900
O          1.26860        1.11070       -2.11720
N          2.97360        0.04100       -5.91440
H          1.27160        0.98290       -4.96800
H          4.04820        0.86350       -3.66170
H          1.90700        2.80150       -3.05380
H          3.04620        2.09620       -1.85520
H          3.97260       -0.20760       -5.85290
H          2.44300       -0.22440       -6.75600
