21
TSA8_9_CF3_CN_CH2F
C          2.25880       -0.86890        1.81990
C          1.10430        0.19000        1.72070
C          2.25480       -1.69730        0.49680
H          3.23580       -0.32100        1.83280
C          1.63770        1.56460        1.62270
C          2.07050       -1.61570        3.18670
C          0.65560       -2.20160        3.27310
C         -0.38260       -1.21320        2.73930
O          0.13620        0.09760        2.75860
C          3.08990       -2.62780        3.74290
H          2.10860       -0.79990        3.94160
H          0.52990       -3.19140        2.78060
H         -1.28740       -1.27430        3.36340
H         -0.69930       -1.48700        1.69290
F          3.51290       -2.20050        0.23040
F          1.35650       -2.74340        0.53750
F          1.90100       -0.88460       -0.57420
N          2.00820        2.66050        1.53820
F          3.14280       -3.79450        3.00630
H          2.75970       -2.89350        4.77930
H          4.10220       -2.18710        3.84510
