18
TSA8_9_OH_I_CHF2
C          3.14100        1.30030       -0.33880
C          1.67930        1.20040       -0.70310
O          3.47270        0.28200        0.57020
H          3.73630        1.17450       -1.27250
I          1.10850        0.88250       -2.71070
C          3.49700        2.69130        0.25000
C          2.78430        2.93700        1.56380
C          1.92110        3.94440        1.72600
O          0.81310        1.28340        0.15330
C          5.01380        2.84880        0.46250
H          3.19430        3.46140       -0.49650
H          2.97960        2.27600        2.40390
H          1.69620        4.62890        0.91400
H          1.43070        4.08830        2.68310
H          3.51420       -0.56420        0.05200
F          5.49280        1.92470        1.37580
F          5.68730        2.69250       -0.73620
H          5.22950        3.86870        0.84780
