18
TSA8_9_OH_I_CHF2
C          3.09950        1.34300       -0.13240
C          1.59110        1.45040       -0.51620
O          3.24300        0.67780        1.09590
H          3.65040        0.76880       -0.91270
I          1.39460        1.52590       -2.64890
C          3.66070        2.77140       -0.02120
C          2.88570        3.55520        1.06100
C          1.45230        3.01910        1.22840
O          0.92090        2.60790       -0.01080
C          5.17730        2.82430        0.22170
H          3.46390        3.27080       -0.99600
H          3.36180        3.51320        2.06480
H          0.81700        3.81280        1.67260
H          1.42000        2.16770        1.94560
H          3.01880       -0.27500        0.93060
F          5.51100        2.21840        1.42050
F          5.84620        2.18760       -0.80860
H          5.51130        3.88330        0.25320
