25
TSA8_9_Et_CN_OMe
C          2.55550       -0.85370        0.64880
C          1.45410       -0.13050        1.41520
C          2.07740       -1.08850       -0.80130
H          3.39950       -0.12820        0.61360
C          1.62810        1.25550        1.80030
C          3.08100       -2.21180        1.27420
C          2.41760       -2.64340        2.56330
C          1.15640       -3.08970        2.57570
O          0.35140       -0.62520        1.55590
O          4.48690       -2.13580        1.47560
H          2.83380       -3.02820        0.55310
H          2.98600       -2.65060        3.48920
H          0.69620       -3.42370        3.49750
H          0.57980       -3.13680        1.65510
C          3.25900       -1.28720       -1.74790
H          1.50120       -0.21830       -1.18510
H          1.39620       -1.96810       -0.81740
H          3.79860       -0.32100       -1.85820
H          2.89270       -1.60580       -2.74450
H          3.96920       -2.04690       -1.36810
N          1.79390        2.35290        2.11130
C          5.12310       -3.35280        1.10820
H          6.03930       -3.48510        1.71830
H          5.41430       -3.32610        0.03660
H          4.50310       -4.25910        1.30880
