25
TSA8_9_Et_CN_OMe
C          1.64400        0.06180        0.10100
C          1.30730        0.10020        1.41640
C          1.76940       -1.06890       -0.89290
H          1.83130        1.02610       -0.37600
C          1.24960        1.41420        2.00270
C          3.44950       -3.27890        1.67000
C          2.65410       -2.63300        2.52510
C          1.22420       -2.29790        2.19440
O          1.00400       -0.94490        2.25730
O          4.71680       -3.58870        2.02880
H          3.07860       -3.55960        0.68870
H          3.03840       -2.35460        3.50450
H          0.61000       -2.77990        2.98520
H          0.85400       -2.73540        1.25800
C          3.20570       -1.09820       -1.38990
H          1.08950       -0.86040       -1.74970
H          1.51000       -2.06650       -0.52930
H          3.49040       -0.10510       -1.80160
H          3.32520       -1.86130       -2.18530
H          3.87980       -1.34380       -0.54230
N          1.20270        2.46990        2.47620
C          5.59530       -4.18100        1.15080
H          6.54900       -4.39890        1.67420
H          5.79790       -3.49250        0.30300
H          5.17150       -5.13360        0.76530
