25
TSA8_9_Et_CN_OMe
C          2.47650       -0.94930        0.68730
C          1.15080       -0.47820        1.39660
C          2.11060       -1.17760       -0.80600
H          3.22460       -0.12490        0.77480
C          1.22430        0.95810        1.73160
C          3.09850       -2.29860        1.23760
C          2.49930       -2.74440        2.56260
C          0.99970       -2.51500        2.47420
O          0.79090       -1.13660        2.59080
O          4.51730       -2.22050        1.32660
H          2.77280       -3.11460        0.55580
H          2.89910       -2.17570        3.42970
H          0.48650       -3.01280        3.31780
H          0.54800       -2.92770        1.53690
C          3.34800       -1.22980       -1.69560
H          1.42890       -0.40160       -1.21480
H          1.53980       -2.13410       -0.88160
H          3.69740       -0.19120       -1.86950
H          3.09730       -1.69860       -2.66970
H          4.16870       -1.80850       -1.23020
N          1.27640        2.08410        1.99620
C          5.15630       -3.44760        0.99600
H          5.87080       -3.72070        1.80070
H          5.72200       -3.32520        0.04860
H          4.47950       -4.32500        0.88700
