21
TSA8_9_OH_CF3_CF3
C          2.06150        0.85580       -2.01350
C          0.81160        0.18350       -2.53130
O          1.86070        1.16640       -0.65590
H          2.92740        0.15670       -2.12130
C          0.85470       -1.23410       -3.03460
C          2.40540        2.15950       -2.78160
C          3.62430        2.79470       -2.14550
C          3.57760        4.00210       -1.57360
O         -0.25010        0.79110       -2.51820
C          2.68580        1.92930       -4.28290
H          1.53850        2.85410       -2.69810
H          4.56570        2.25190       -2.14760
H          2.65690        4.57640       -1.54520
H          4.47070        4.42320       -1.12370
H          2.34330        0.48460       -0.11900
F         -0.40180       -1.64150       -3.44830
F          1.73000       -1.32920       -4.09960
F          1.28340       -2.06960       -2.01900
F          3.74020        1.04810       -4.45330
F          1.56870        1.42290       -4.92130
F          3.01070        3.13320       -4.88480
