21
TSA8_9_OH_CF3_CF3
C          1.78360       -0.00640       -0.14800
C          1.49220        0.09420       -1.46780
O          2.17690        1.05070        0.58940
H          1.67980       -0.95980        0.36160
C          0.99730       -1.10620       -2.23940
C          2.53130        2.91980       -4.37710
C          3.16550        2.64460       -3.22790
C          2.40420        2.35320       -1.96870
O          1.59270        1.25250       -2.18310
C          3.29210        3.19700       -5.63950
H          1.44460        2.93860       -4.40300
H          4.25200        2.62460       -3.19980
H          1.77510        3.23060       -1.70800
H          3.14930        2.18290       -1.16890
H          2.36840        0.95120        1.53220
F         -0.25190       -0.82550       -2.76070
F          1.86880       -1.36000       -3.28220
F          0.90360       -2.24420       -1.45560
F          4.07020        2.10140       -5.96750
F          2.40570        3.44480       -6.67110
F          4.10510        4.30240       -5.46680
