18
TSA8_9_Cl_CN_Me
C          2.88050       -1.57720       -0.85960
C          1.45740       -1.60950       -0.21320
Cl         3.07560       -0.04810       -1.77520
H          3.67120       -1.56160       -0.07560
C          1.54140       -2.08980        1.17310
C          3.01610       -2.81440       -1.76630
C          1.93900       -2.75270       -2.85970
C          0.60060       -2.25480       -2.29000
O          0.53590       -2.45930       -0.89560
C          4.40210       -3.03980       -2.37490
H          2.80680       -3.70130       -1.12830
H          2.21670       -2.07750       -3.70200
H         -0.21200       -2.82090       -2.79030
H          0.42650       -1.17870       -2.51660
N          1.60770       -2.46810        2.26390
H          5.15780       -3.16820       -1.57130
H          4.70460       -2.20230       -3.03660
H          4.38040       -3.97660       -2.97520
