21
TSA8_9_OH_CH2F_CBr3
C          2.75850        1.76410       -0.20250
C          1.50200        2.19260       -0.93040
O          2.41710        0.79400        0.75580
H          3.45710        1.30150       -0.93730
C          1.37600        1.96890       -2.41030
C          3.54600        2.91040        0.50570
C          2.71000        3.55000        1.60040
C          3.03880        3.45320        2.89260
O          0.57240        2.69040       -0.31190
C          4.13530        3.99920       -0.44250
H          4.42500        2.41120        0.97440
H          1.81770        4.10880        1.33910
H          2.41660        3.92550        3.64580
H          3.92130        2.90720        3.21060
H          2.32700       -0.07140        0.27640
F          0.14950        2.41390       -2.87190
H          1.47100        0.88470       -2.62930
H          2.18110        2.51650       -2.94230
Br         5.26780        5.21060        0.57390
Br         5.27700        3.21650       -1.80730
Br         2.79820        5.10080       -1.33040
