21
TSA8_9_OH_CH2F_CBr3
C          1.69920        0.12500       -0.07090
C          1.41130        1.34030       -0.59060
O          2.11900       -0.03780        1.19980
H          1.56740       -0.76510       -0.68070
C          0.89090        1.43830       -1.99840
C          4.47270        4.14030        0.56940
C          3.13700        4.09730        0.72120
C          2.42480        2.83250        1.10590
O          1.54170        2.51480        0.09050
C          5.25580        5.36720        0.16240
H          5.04840        3.23390        0.73770
H          2.52350        4.97460        0.55580
H          1.85930        3.01270        2.04390
H          3.16550        2.02790        1.28170
H          2.30670       -0.92020        1.54810
F         -0.35590        2.03510       -1.98890
H          0.80750        0.44540       -2.48920
H          1.58530        2.06470       -2.59660
Br         6.55770        5.75400        1.54010
Br         6.19970        4.96860       -1.47950
Br         4.20170        6.97870       -0.13430
