17
TSA8_9_CHF2_H_F
C          1.82260        0.03230        0.02390
C          1.16060        0.95570        0.73880
C          2.05760       -1.39510        0.45060
H          2.22080        0.32880       -0.94240
H          1.05040        1.95360        0.32040
C         -0.18620        1.49290        5.14960
C         -0.53530        0.98230        3.96490
C         -0.09280        1.60080        2.67080
O          0.63000        0.67500        1.95190
F         -0.61020        0.90030        6.29600
H          0.43540        2.38030        5.21540
H         -1.15950        0.09370        3.93180
H          0.53280        2.50340        2.85270
H         -0.99370        1.90170        2.09350
F          3.41770       -1.63500        0.49920
F          1.50800       -1.68790        1.68620
H          1.60280       -2.07020       -0.30320
