17
TSA8_9_CHF2_H_F
C          1.70100        0.25780        2.03100
C          1.19570        1.28460        1.00210
C          1.36820       -1.17190        1.55960
H          2.80790        0.32950        2.10910
H          1.57690        2.31130        1.20580
C          1.08030        0.61930        3.39750
C         -0.44160        0.73380        3.28290
C         -0.77850        1.70930        2.14660
O         -0.22090        1.27350        0.91680
F          1.42620       -0.29880        4.37300
H          1.47050        1.61360        3.70900
H         -0.89440       -0.25770        3.07160
H         -0.43780        2.74080        2.39240
H         -1.88200        1.75690        2.04010
F          1.97750       -1.41160        0.34020
F          1.83660       -2.10050        2.47140
H          0.27610       -1.31710        1.43290
