17
TSA8_9_NO2_OH_F
C          2.49440        0.91740       -1.11570
C          1.38400        0.00570       -1.60090
N          2.40650        1.08140        0.32560
H          3.45660        0.41080       -1.35920
O          1.67410       -1.14930       -2.23850
C          2.57580        2.29550       -1.82840
C          1.41190        3.23720       -1.61470
C          0.20790        3.05890       -2.16510
O          0.21540        0.27410       -1.37560
F          3.71480        2.93040       -1.36050
H          2.71450        2.14600       -2.92150
H          1.57310        4.13050       -1.01750
H         -0.00290        2.21510       -2.81050
H         -0.57890        3.78490       -1.98720
O          3.28750        0.68430        1.02730
O          1.35580        1.65570        0.87270
H          2.58380       -1.42100       -2.42490
