18
TSA8_9_OH_CBr3_I
C          2.67610        0.82460       -1.46830
C          1.38860        0.38910       -2.15030
O          2.41930        1.02770       -0.10280
H          3.44270        0.02080       -1.56810
C          1.21010       -1.01730       -2.69800
C          3.30240        2.11630       -2.06660
C          2.39450        3.32800       -2.02180
C          1.96130        3.87300       -0.88000
O          0.45040        1.17180       -2.19150
I          3.95340        1.83300       -4.09310
H          4.22710        2.35530       -1.49790
H          2.08980        3.79390       -2.95430
H          1.31840        4.74670       -0.90990
H          2.24300        3.47310        0.08690
H          2.42450        0.13580        0.33350
Br         1.42480       -2.30870       -1.26850
Br        -0.56430       -1.27690       -3.45270
Br         2.49070       -1.44040       -4.08690
