18
TSA8_9_OH_CBr3_I
C          1.73070       -0.04260       -0.15270
C          1.45790        0.23690       -1.45140
O          1.89480        0.93430        0.76320
H          1.80150       -1.06350        0.19680
C          1.21240       -0.85240       -2.48230
C          3.99830        3.35180       -2.97630
C          2.68180        3.24070       -2.77180
C          2.11460        2.61200       -1.53320
O          1.36300        1.51670       -1.91580
I          4.73020        4.22600       -4.75190
H          4.71300        2.98930       -2.24390
H          1.99320        3.60580       -3.52780
H          1.46060        3.35060       -1.02460
H          2.93950        2.32530       -0.84640
H          2.07250        0.71800        1.68880
Br         1.33960       -2.69360       -1.85280
Br        -0.55860       -0.62090       -3.23300
Br         2.50720       -0.64650       -3.91010
