18
TSA8_9_OH_CBr3_I
C          2.86180        0.74450       -1.03560
C          1.39330        0.55130       -1.50830
O          2.80760        1.09940        0.32430
H          3.48420       -0.17580       -1.10230
C          1.07900       -0.35990       -2.71740
C          3.56870        1.88580       -1.79450
C          2.58650        2.97780       -2.24340
C          1.31670        2.95640       -1.38540
O          0.58890        1.73610       -1.50610
I          4.77450        1.22170       -3.44350
H          4.32080        2.32640       -1.10480
H          2.25880        2.80440       -3.28670
H          0.66290        3.78090       -1.73910
H          1.54910        3.16560       -0.31970
H          2.59400        0.27250        0.83110
Br         2.00870       -2.05840       -2.58750
Br        -0.81600       -0.76670       -2.68290
Br         1.43890        0.42220       -4.45160
