23
TSA8_9_Cl_Et_Me
C          2.20950       -2.02890       -0.75240
C          0.96020       -2.52770       -0.06690
Cl         1.94960       -0.31590       -1.20330
H          3.06390       -2.06440       -0.04030
C          1.02890       -3.00530        1.36440
C          2.55800       -2.87880       -1.99930
C          3.79810       -2.33270       -2.67140
C          3.78210       -1.88460       -3.93060
O         -0.09930       -2.54030       -0.67940
C          2.81290       -4.34700       -1.62720
H          1.69790       -2.84540       -2.70590
H          4.73100       -2.30280       -2.11500
H          2.87070       -1.89670       -4.52090
H          4.69110       -1.49930       -4.38060
C         -0.32180       -3.47470        1.90490
H          1.39880       -2.17400        2.00180
H          1.74980       -3.84860        1.42550
H         -1.05730       -2.64220        1.87960
H         -0.20490       -3.81300        2.95600
H         -0.70570       -4.32330        1.29920
H          3.66030       -4.42970       -0.91240
H          3.05600       -4.93360       -2.53920
H          1.91110       -4.79970       -1.16440
