23
TSA8_9_Cl_Et_Me
C          1.94330       -0.19870        0.09930
C          1.55910       -1.44850       -0.22220
Cl         2.01640        1.10660       -1.07970
H          2.20070        0.04940        1.12490
C          1.47290       -2.51630        0.84150
C          2.48010       -4.36050       -2.21590
C          3.01370       -3.13280       -2.28590
C          2.15060       -1.92380       -2.52020
O          1.22580       -1.77260       -1.50020
C          3.33800       -5.56550       -1.98710
H          1.40700       -4.49410       -2.32720
H          4.08710       -3.00000       -2.18100
H          1.60970       -2.05530       -3.48090
H          2.78850       -1.02100       -2.60710
C          0.05100       -3.05270        0.96490
H          1.78740       -2.12430        1.83330
H          2.15570       -3.34920        0.57120
H         -0.63900       -2.23720        1.26510
H          0.01970       -3.84550        1.74140
H         -0.28790       -3.48620        0.00020
H          3.86540       -5.47520       -1.01400
H          4.08390       -5.66080       -2.80420
H          2.70550       -6.47750       -1.97020
