23
TSA8_9_Cl_Et_Me
C          2.90440       -2.53690       -0.40590
C          1.40190       -2.10830       -0.31100
Cl         3.92300       -1.11530       -0.80260
H          3.26890       -2.89120        0.58330
C          0.70150       -2.84880        0.83970
C          3.02960       -3.64810       -1.46260
C          2.52560       -3.14040       -2.82860
C          1.42940       -2.07500       -2.65830
O          0.65530       -2.34150       -1.51150
C          4.44050       -4.23400       -1.56800
H          2.35100       -4.46900       -1.14080
H          3.32430       -2.69020       -3.45810
H          0.78630       -2.06410       -3.56230
H          1.86190       -1.05180       -2.58620
C         -0.73650       -2.37030        1.02250
H          1.24990       -2.65510        1.78710
H          0.70200       -3.94320        0.64510
H         -0.75400       -1.28050        1.23680
H         -1.20080       -2.90970        1.87490
H         -1.33750       -2.57370        0.11100
H          4.76000       -4.63430       -0.58270
H          5.16880       -3.46170       -1.89450
H          4.45020       -5.06550       -2.30470
