23
TSA8_9_F_Et_CCl3
C          2.17980        1.76100        1.26390
C          0.95860        2.47040        0.74010
F          1.86660        0.41280        1.33810
H          3.01810        1.86980        0.54160
C          1.01800        3.20900       -0.57730
C          2.63670        2.25690        2.66590
C          3.74460        1.33450        3.14280
C          3.61130        0.57430        4.23510
O         -0.08130        2.42060        1.38180
C          3.13370        3.73670        2.71320
H          1.77200        2.16690        3.36160
H          4.67310        1.28330        2.58190
H          2.70010        0.59100        4.82530
H          4.42260       -0.07540        4.54580
C         -0.31660        3.84830       -0.96200
H          1.31240        2.49390       -1.37540
H          1.79070        4.00400       -0.51280
H         -1.10210        3.06870       -1.06190
H         -0.21270        4.37300       -1.93450
H         -0.62750        4.58580       -0.19110
Cl         1.84380        4.91180        2.33700
Cl         3.69070        4.14550        4.36250
Cl         4.49530        4.02510        1.58970
