23
TSA8_9_F_Et_CCl3
C          2.06100        0.34220       -0.04650
C          1.55360        1.44050        0.54400
F          2.23870       -0.81740        0.63870
H          2.32020        0.35130       -1.10080
C          1.33410        2.70160       -0.25480
C          2.72600        3.52760        3.25790
C          3.10830        2.26340        3.01920
C          2.08640        1.16630        2.90060
O          1.21660        1.44980        1.86270
C          3.71200        4.66080        3.37080
H          1.66640        3.74450        3.37120
H          4.16090        2.01890        2.90540
H          1.51170        1.11630        3.84960
H          2.58570        0.18760        2.75540
C         -0.12740        3.12990       -0.22100
H          1.64420        2.56850       -1.31450
H          1.95690        3.50940        0.18640
H         -0.76870        2.34480       -0.67290
H         -0.24990        4.06910       -0.80050
H         -0.45290        3.31540        0.82500
Cl         2.84600        6.18270        3.70450
Cl         4.85930        4.36220        4.70210
Cl         4.61220        4.84970        1.84390
