23
TSA8_9_F_Et_CCl3
C          2.97210        2.26720        1.05730
C          1.48320        1.86850        0.78810
F          3.72400        1.12110        1.25670
H          3.39250        2.77630        0.16430
C          0.81290        2.88350       -0.15310
C          3.01870        3.15880        2.31590
C          2.45070        2.36500        3.51800
C          1.44320        1.29350        3.06660
O          0.68600        1.75710        1.97250
C          4.40290        3.78910        2.62210
H          2.31990        4.00280        2.12550
H          3.22640        1.84130        4.11580
H          0.77550        1.03840        3.91450
H          1.95870        0.34580        2.78840
C         -0.61180        2.46570       -0.50780
H          1.39730        2.94730       -1.09680
H          0.78880        3.88950        0.31770
H         -0.60960        1.46840       -0.99680
H         -1.05160        3.20670       -1.20790
H         -1.24700        2.42580        0.40250
Cl         4.28900        4.85270        4.05220
Cl         5.66430        2.56330        2.94120
Cl         4.94700        4.80280        1.25670
