17
TSA8_9_Br_F_CH2F
C          3.05480       -0.51530       -1.88760
C          1.59190       -0.46980       -1.53140
Br         4.09410        0.01240       -0.32310
H          3.30530       -1.57570       -2.10870
F          0.85660       -1.61210       -1.55720
C          3.36380        0.32440       -3.15730
C          3.11690        1.80260       -2.93770
C          2.20320        2.48080       -3.63890
O          1.05770        0.57920       -1.20710
C          4.80320        0.11170       -3.65610
H          2.69680       -0.05360       -3.96610
H          3.69930        2.33360       -2.19010
H          1.59850        1.99240       -4.39650
H          2.05530        3.53990       -3.45420
F          5.73870        0.57220       -2.74680
H          4.94970        0.65750       -4.61290
H          4.98450       -0.96750       -3.84780
