17
TSA8_9_Br_F_CH2F
C          1.99110       -0.13430       -0.24610
C          1.30140       -0.47280       -1.35740
Br         3.06720        1.42390        0.07300
H          1.92810       -0.80640        0.60390
F          0.58040       -1.62320       -1.30250
C          3.96760        0.80460       -4.48670
C          3.42870        0.77380       -3.25910
C          2.02740        1.26410       -2.99240
O          1.23870        0.23120       -2.52600
C          5.35740        0.30220       -4.73310
H          3.39830        1.19190       -5.32740
H          4.01400        0.37830       -2.43520
H          1.57290        1.63350       -3.93650
H          2.01600        2.12020       -2.29220
F          6.26440        1.03470       -3.98870
H          5.60670        0.40580       -5.80980
H          5.42720       -0.76970       -4.45080
