18
TSA8_9_NH2_NH2_Br
C          2.93450       -0.66320        1.00170
C          1.48000       -0.69790        1.58150
N          2.93180       -0.91050       -0.44390
H          3.38580        0.34270        1.15690
N          1.24190        0.48130        2.40710
C          3.79070       -1.69770        1.74560
C          3.16590       -3.09800        1.65510
C          1.62960       -3.01830        1.68210
O          1.21070       -1.85980        2.36810
Br         5.64060       -1.71310        1.15740
H          3.78730       -1.40360        2.81850
H          3.46490       -3.66110        0.74480
H          1.22680       -3.92640        2.17640
H          1.19660       -3.02520        0.65660
H          2.38830       -0.15480       -0.92060
H          2.49730       -1.82730       -0.68660
H          0.27050        0.42630        2.78890
H          1.28270        1.32710        1.79420
