19
TSA8_9_CBr3_CN_OH
C          0.75210       -1.48170       -0.71190
C          1.65540       -1.57660        0.54680
C          1.14980       -0.32280       -1.69660
H         -0.15590       -1.03940       -0.26390
C          3.04940       -2.01270        0.34430
C          0.08820       -2.85810       -1.13180
C          0.13340       -3.84350        0.04970
C         -0.04600       -3.07440        1.35840
O          1.07490       -2.25700        1.66820
O          0.60360       -3.48660       -2.27510
H         -0.99320       -2.63970       -1.33550
H          1.12320       -4.35400        0.10350
H         -0.16670       -3.80220        2.18930
H         -0.96880       -2.45330        1.32780
Br         0.66800        1.36530       -0.83240
Br         3.04620       -0.13230       -2.10140
Br         0.22120       -0.36900       -3.39280
N          4.16130       -2.34950        0.25450
H         -0.04460       -4.22850       -2.47600
