21
TSA8_9_I_OH_Et
C          3.15980       -1.65380       -0.43930
C          1.60390       -1.60580       -0.36290
I          3.86190        0.28220       -1.09600
H          3.57130       -1.77520        0.58660
O          1.17790       -2.30500        0.76810
C          3.54260       -2.85510       -1.32840
C          2.95650       -2.67010       -2.74150
C          1.62650       -1.89390       -2.69540
O          0.92740       -2.15470       -1.49800
C          5.02350       -3.30810       -1.31910
H          2.99660       -3.71970       -0.88530
H          3.62280       -2.13440       -3.44780
H          1.00870       -2.18400       -3.57010
H          1.78690       -0.79890       -2.79690
H          0.73020       -1.62240        1.32960
C          6.05300       -2.32760       -1.88020
H          5.09420       -4.24610       -1.91260
H          5.31450       -3.55020       -0.27350
H          5.83100       -2.06250       -2.93320
H          7.05580       -2.80430       -1.85210
H          6.11410       -1.41540       -1.25990
