23
TSA8_9_CHF2_CF3_CH2F
C          2.36970       -1.79670       -1.69330
C          0.87100       -1.34260       -1.62440
C          3.25250       -0.71080       -1.04160
H          2.51090       -2.71490       -1.07980
C          0.02680       -2.20560       -0.68480
C          2.70740       -2.17000       -3.16510
C          2.30920       -1.04870       -4.14210
C          0.99390       -0.38330       -3.70630
O          0.24580       -1.27000       -2.90220
C          4.13220       -2.67690       -3.42740
H          2.03290       -3.02660       -3.39450
H          3.07990       -0.26080       -4.28370
H          0.41330       -0.09040       -4.60500
H          1.18680        0.56720       -3.15540
F          4.55690       -1.14460       -0.90360
F          3.23540        0.47130       -1.75790
H          2.87290       -0.50310       -0.01820
F         -1.25570       -1.69440       -0.61490
F         -0.03030       -3.50490       -1.15820
F          0.57650       -2.20440        0.58440
F          5.06630       -1.66470       -3.30800
H          4.19320       -3.07200       -4.46410
H          4.37950       -3.50260       -2.72720
