20
TSA8_9_NH2_I_OMe
C          1.79200       -0.11910       -0.10410
C          1.47780       -0.75730       -1.25960
N          1.91700        1.28180        0.09530
H          1.95440       -0.74190        0.77140
I          1.32950       -2.86300       -1.15380
C          3.52110        1.64360       -4.20360
C          2.88010        1.39120       -3.04590
C          1.41250        1.03970       -3.01170
O          1.23100       -0.22740       -2.49490
O          4.84450        1.95590       -4.27480
H          2.96910        1.59810       -5.13720
H          3.42150        1.43100       -2.10930
H          1.00410        1.03630       -4.04440
H          0.80560        1.78250       -2.46100
H          2.16280        1.62320        1.03590
H          1.75490        1.98910       -0.62170
C          5.71230        2.05560       -3.20610
H          6.72200        2.32000       -3.58150
H          5.77670        1.08340       -2.67220
H          5.37340        2.85170       -2.50920
