18
TSA8_9_Cl_Me_CN
C          1.67430       -0.06910       -0.02300
C          1.54860       -1.45210       -0.19980
Cl         1.77300        1.22570       -1.17290
H          1.56500        0.34210        1.00140
C          1.55310       -2.26110        1.05790
C          2.74040       -3.00260       -4.06130
C          2.56120       -1.93600       -3.26500
C          1.20330       -1.64160       -2.63070
O          1.10310       -2.11580       -1.33670
C          4.07220       -3.41980       -4.43220
H          1.90960       -3.65410       -4.31420
H          3.42490       -1.31810       -3.03750
H          0.44780       -2.15220       -3.22150
H          0.92860       -0.57350       -2.72310
H          2.20640       -1.80340        1.84520
H          1.93210       -3.29660        0.89420
H          0.49770       -2.31710        1.41420
N          5.12820       -3.77740       -4.74460
