18
TSA8_9_Cl_Me_CN
C          2.91800       -1.48550       -1.24340
C          1.47060       -1.58150       -0.66170
Cl         3.27520        0.23010       -1.62030
H          3.67200       -1.79940       -0.48800
C          1.45550       -2.39910        0.63150
C          2.98350       -2.38250       -2.49170
C          1.96900       -1.88110       -3.52250
C          0.63340       -1.54100       -2.83990
O          0.53600       -2.16340       -1.57360
C          4.31370       -2.52550       -3.09630
H          2.67830       -3.40390       -2.17760
H          2.32210       -0.97000       -4.06190
H         -0.18030       -1.90340       -3.50130
H          0.49210       -0.44120       -2.73240
H          2.08930       -1.90610        1.39890
H          1.83770       -3.42720        0.45100
H          0.42010       -2.46510        1.02580
N          5.34670       -2.66390       -3.59930
