20
TSA8_9_Et_H_H
C          2.29300        0.85860        0.89200
C          0.84240        1.21800        1.25740
C          2.40470       -0.67120        0.67820
H          2.55820        1.35210       -0.06870
H          0.65980        2.31700        1.24200
C          3.20200        1.41870        2.00600
C          2.73870        0.91450        3.37400
C          1.24740        1.23860        3.54310
O          0.47330        0.65560        2.50690
H          4.27070        1.17830        1.83620
H          3.11840        2.52760        2.00680
H          2.89880       -0.18110        3.45760
H          1.08170        2.33880        3.58810
H          0.90810        0.82550        4.51580
C          3.80510       -1.12210        0.26470
H          1.70280       -0.95850       -0.13560
H          2.10390       -1.22900        1.58990
H          4.12190       -0.59960       -0.66260
H          3.79680       -2.21560        0.07210
H          4.54160       -0.92690        1.07030
