22
TSA8_9_OMe_OMe_Cl
C          1.60310        0.21750        0.00570
C          1.49070       -1.10080       -0.17210
O          1.40120        1.05690       -1.03760
H          1.83140        0.61390        0.99260
O          1.66850       -1.92150        0.90000
C         -0.93300       -2.42990       -3.89560
C         -0.73450       -1.90640       -2.68220
C          0.23010       -2.50870       -1.70160
O          1.19030       -1.56150       -1.41460
Cl        -2.05440       -1.67060       -5.01370
H         -0.40330       -3.32240       -4.21300
H         -1.27460       -1.00960       -2.39200
H          0.71850       -3.41080       -2.12830
H         -0.33410       -2.80200       -0.78850
C          1.39550        2.42470       -0.89660
H          1.20600        2.88940       -1.88600
H          2.37650        2.77530       -0.51240
H          0.58570        2.73000       -0.19930
C          1.90080       -3.28240        0.86420
H          2.84330       -3.49890        1.40840
H          2.02050       -3.67010       -0.16650
H          1.06850       -3.81230        1.37120
