22
TSA8_9_OMe_OMe_Cl
C          0.78070       -0.61000       -1.33240
C          1.38440       -1.94050       -0.79740
O          1.77200        0.39930       -1.23110
H         -0.15650       -0.38380       -0.76420
O          1.28970       -2.02910        0.60230
C          0.38630       -0.84900       -2.79830
C         -0.64590       -1.99070       -2.88160
C         -0.46230       -3.00230       -1.73800
O          0.90440       -3.13380       -1.41560
Cl        -0.26150        0.60540       -3.60660
H          1.30180       -1.16490       -3.34400
H         -1.69660       -1.63090       -2.81940
H         -0.88130       -3.98360       -2.03840
H         -1.02800       -2.68590       -0.83110
C          1.24270        1.58610       -0.67940
H          0.51920        2.06430       -1.37270
H          2.07560        2.30350       -0.53210
H          0.79100        1.40800        0.32140
C          2.51610       -2.51740        1.08590
H          3.27390       -1.70710        1.11970
H          2.88670       -3.39540        0.50550
H          2.35590       -2.88800        2.12060
