23
TSA8_9_Et_Cl_CCl3
C          2.59390       -0.84960        1.27950
C          1.32190       -0.15540        1.72880
C          2.54290       -0.86730       -0.27890
H          3.42510       -0.18590        1.59450
Cl         1.40700        1.38140        2.57630
C          2.71550       -2.21140        2.06950
C          1.88350       -3.30170        1.42410
C          0.81160       -3.82940        2.02420
O          0.22790       -0.65310        1.51060
C          4.15330       -2.71440        2.43150
H          2.30420       -1.99220        3.08380
H          2.16440       -3.67130        0.44340
H          0.49250       -3.49230        3.00510
H          0.24330       -4.60950        1.52820
C          3.76150       -1.39590       -1.01600
H          2.42190        0.18970       -0.60820
H          1.65120       -1.42870       -0.63570
H          4.68370       -0.88130       -0.67270
H          3.63490       -1.20870       -2.10360
H          3.83210       -2.48960       -0.90640
Cl         5.06580       -1.44730        3.29980
Cl         4.02400       -4.09410        3.56220
Cl         5.16760       -3.28250        1.08810
