23
TSA8_9_Et_Cl_CCl3
C          2.46020       -1.03140        1.42600
C          1.02340       -0.55390        1.85080
C          2.48550       -1.27280       -0.10850
H          3.13700       -0.16720        1.60460
Cl         1.13860        0.84090        2.96140
C          2.83860       -2.23430        2.35150
C          1.77380       -3.35420        2.24060
C          0.38770       -2.79240        1.90440
O          0.21920       -1.53380        2.50360
C          4.28110       -2.81560        2.33210
H          2.72470       -1.79740        3.37030
H          1.99850       -4.13060        1.48020
H         -0.38780       -3.49670        2.26850
H          0.22480       -2.71160        0.80640
C          3.85420       -1.03790       -0.75750
H          1.83620       -0.50570       -0.58670
H          2.07970       -2.26860       -0.37710
H          4.19090        0.00300       -0.56470
H          3.76670       -1.17470       -1.85620
H          4.63850       -1.71240       -0.39580
Cl         5.49870       -1.51410        2.42090
Cl         4.51300       -3.84180        3.77650
Cl         4.62970       -3.86730        0.92780
