16
TSA8_9_H_H_NO2
C          0.65370       -0.20160       -2.10840
C          1.05260       -1.09680       -0.91630
H          1.54020        0.15610       -2.67400
H          0.14730        0.68390       -1.66640
H          0.33420       -0.99340       -0.07020
C         -0.27260       -0.96340       -3.08200
C         -1.13940       -1.92780       -2.27700
C         -0.17950       -2.96290       -1.63230
O          1.11640       -2.45540       -1.29690
N         -1.06850       -0.05170       -3.87940
H          0.35490       -1.58880       -3.75950
H         -1.68100       -1.34630       -1.49790
H         -0.01290       -3.74450       -2.40290
H         -0.65890       -3.45370       -0.75890
O         -1.83840        0.69830       -3.35750
O         -0.95400       -0.05370       -5.18980
