19
TSA8_9_Me_NO2_Cl
C          1.86120        0.02500       -0.11210
C          1.51450        0.49940       -1.34750
C          1.89610        0.70180        1.23300
H          2.15480       -1.01710       -0.03860
N          1.54570       -0.40720       -2.45470
C          3.16780        4.45920       -1.27570
C          2.63140        3.36110       -0.73170
C          1.19160        2.97810       -0.96850
O          1.12240        1.77900       -1.64670
Cl         4.85450        4.85680       -0.99110
H          2.57800        5.11790       -1.90580
H          3.25690        2.72500       -0.11500
H          0.70390        3.74460       -1.60810
H          0.58610        2.95720       -0.04490
H          1.59710        1.75010        1.27050
H          2.92760        0.63910        1.63700
H          1.21930        0.15060        1.91910
O          1.24430       -0.01970       -3.54400
O          1.91130       -1.66350       -2.30570
