21
TSA8_9_CN_CH2F_CBr3
C          2.93910       -1.46540       -0.80470
C          1.68110       -1.85670       -0.01580
C          2.72970       -0.03570       -1.12520
H          3.81010       -1.56900       -0.12900
C          1.70280       -2.03990        1.47830
C          3.08830       -2.35390       -2.12060
C          2.30890       -1.67090       -3.22580
C          1.03790       -1.94050       -3.47800
O          0.59940       -1.93850       -0.57940
C          4.49140       -2.75430       -2.70050
H          2.64360       -3.34120       -1.86540
H          2.78360       -0.84710       -3.75740
H          0.51940       -2.71000       -2.92350
H          0.51540       -1.34490       -4.21430
N          2.49190        1.07800       -1.33270
F          2.52920       -3.08500        1.83950
H          0.67540       -2.24490        1.85870
H          2.05300       -1.09960        1.95420
Br         4.22290       -3.94090       -4.23470
Br         5.58500       -1.27740       -3.33600
Br         5.55960       -3.78800       -1.45560
