21
TSA8_9_CBr3_OMe_H
C          1.14350       -0.69600        1.56420
C          2.39810       -0.32350        2.34680
C          1.46500       -1.10540        0.08380
H          0.51290        0.21900        1.52250
O          3.63580       -0.48820        1.81100
C          0.39810       -1.79040        2.38600
C         -0.97270       -2.15400        1.88370
C         -1.96990       -1.26530        1.83830
O          2.27840        0.12620        3.47960
H          1.02260       -2.70840        2.42090
H          0.26270       -1.44230        3.43390
H         -1.15940       -3.17480        1.56390
H         -1.82210       -0.23910        2.15960
H         -2.94740       -1.56710        1.47650
Br        -0.11930       -1.39360       -1.00570
Br         2.40930        0.33040       -0.83380
Br         2.54740       -2.72040       -0.03350
C          4.80900       -0.19870        2.47460
H          5.66750       -0.42610        1.80970
H          4.89190       -0.82140        3.39120
H          4.84020        0.87750        2.74630
