21
TSA8_9_CBr3_OMe_H
C          1.33530       -0.43130       -0.10750
C          1.93640       -0.61210        1.09170
C          2.09390       -0.26730       -1.40380
H          0.25520       -0.38590       -0.16450
O          3.29240       -0.63200        1.15500
C         -0.98840       -1.83220        4.58560
C         -0.22260       -2.08550        3.52040
C         -0.10440       -1.11910        2.37920
O          1.22240       -0.75140        2.24780
H         -1.04820       -2.55420        5.39320
H         -1.55950       -0.91210        4.66290
H          0.33310       -3.01780        3.47720
H         -0.71710       -0.21010        2.56150
H         -0.48020       -1.63480        1.47160
Br         0.84490       -0.01230       -2.86540
Br         3.25740        1.28570       -1.34330
Br         3.14540       -1.85180       -1.78980
C          3.99510       -0.81370        2.32580
H          5.08190       -0.79710        2.10440
H          3.73680       -1.79560        2.77740
H          3.76190        0.00230        3.04270
