18
TSA8_9_NH2_OH_CN
C          2.77350        1.32800        0.94290
C          1.76810        2.00630        0.04950
N          2.41110       -0.08580        1.10650
H          3.74580        1.39290        0.40230
O          2.18350        2.53670       -1.12260
C          2.88100        2.06980        2.31490
C          2.08600        1.39620        3.40110
C          0.79360        1.66500        3.60230
O          0.59760        2.10390        0.38360
C          4.29050        2.19650        2.75070
H          2.57240        3.12940        2.19570
H          2.55810        0.62910        4.00540
H          0.27770        2.40720        3.00630
H          0.24810        1.12660        4.36980
H          3.08990       -0.82140        0.81320
H          1.47060       -0.31520        1.50470
H          1.57860        3.00380       -1.71330
N          5.38400        2.33390        3.08650
