18
TSA8_9_Br_CCl3_OH
C          2.85510       -1.76940       -1.04940
C          1.52300       -2.21740       -0.48120
Br         2.84710        0.16480       -1.25670
H          3.65600       -1.96870       -0.30430
C          1.42870       -2.84330        0.89480
C          3.24490       -2.53270       -2.34400
C          2.22980       -2.45150       -3.46960
C          1.92400       -1.32510       -4.12070
O          0.50780       -2.04710       -1.14170
O          3.42600       -3.88530       -2.00930
H          4.21810       -2.11840       -2.69910
H          1.73580       -3.36700       -3.78450
H          1.19340       -1.34990       -4.92280
H          2.39410       -0.38000       -3.88740
Cl         2.39500       -4.33860        0.96390
Cl         2.03810       -1.70420        2.12260
Cl        -0.25730       -3.25890        1.31880
H          4.04240       -4.27370       -2.68450
