17
TSA8_9_Cl_NH2_OH
C          1.79600       -0.09610       -0.26940
C          1.35660       -0.58220       -1.45460
Cl         2.42260        1.51610        0.04740
H          1.74330       -0.73800        0.60700
N          0.84040       -1.90590       -1.48630
C          4.20340        0.39800       -4.43890
C          3.60170        0.48590       -3.24260
C          2.22530        1.07770       -3.09060
O          1.35350        0.10500       -2.63420
O          5.42860       -0.15890       -4.56880
H          3.70860        0.77070       -5.33070
H          4.10470        0.10610       -2.35900
H          1.84900        1.42960       -4.07590
H          2.23820        1.96770       -2.44010
H          0.51220       -2.30550       -2.37500
H          0.81450       -2.49420       -0.64040
H          5.91320       -0.52910       -3.81630
