22
TSA8_9_NH2_Me_CH2F
C          1.76180        0.15120       -0.03100
C          1.45300        1.14720        0.82930
N          1.86520       -1.20910        0.35960
H          1.90840        0.38290       -1.08200
C          1.27330        2.55040        0.31970
C          3.02460        2.87440        3.56280
C          3.32470        1.63530        3.15000
C          2.27280        0.56580        3.04480
O          1.27050        0.93590        2.16100
C          4.08090        3.93120        3.66590
H          2.00110        3.12660        3.82680
H          4.34940        1.38570        2.88690
H          1.82360        0.40600        4.04740
H          2.75930       -0.37850        2.73500
H          1.62460       -1.52940        1.30650
H          2.10380       -1.91870       -0.34740
H          1.99980        3.22330        0.81920
H          0.24420        2.89480        0.55290
H          1.42580        2.62350       -0.77870
F          5.05370        3.54100        4.56870
H          3.62560        4.88180        4.01570
H          4.54550        4.10080        2.67190
