22
TSA8_9_NH2_Me_CH2F
C          2.78200        1.54980        1.09830
C          1.26290        1.15650        1.12500
N          3.62380        0.38290        0.81290
H          2.97090        2.28090        0.27900
C          0.43130        2.15840        0.32510
C          3.14530        2.20860        2.44360
C          2.81740        1.26330        3.61650
C          1.57190        0.41130        3.31570
O          0.70580        1.09570        2.44020
C          4.58600        2.73050        2.51150
H          2.47270        3.09020        2.54360
H          3.64400        0.57210        3.88970
H          1.05170        0.18110        4.26800
H          1.83530       -0.57870        2.88200
H          3.53810       -0.36380        1.53500
H          3.35420       -0.01980       -0.11300
H          0.50610        3.17020        0.77880
H         -0.63300        1.84330        0.32250
H          0.78620        2.20100       -0.72620
F          5.49960        1.69600        2.41290
H          4.74750        3.25940        3.47490
H          4.76540        3.45090        1.68480
