19
TSA8_9_Br_NH2_CHF2
C          2.30790       -1.86890        0.39570
C          1.43800       -2.14670        1.60100
Br         1.24060       -0.86970       -0.89320
H          3.16470       -1.22180        0.68600
N          1.76840       -1.66240        2.82080
C          2.85280       -3.17890       -0.22820
C          3.67310       -2.86840       -1.46230
C          3.33660       -3.33310       -2.67020
O          0.42390       -2.81700        1.47380
C          3.72490       -3.96560        0.76970
H          1.98620       -3.82100       -0.50600
H          4.56130       -2.25030       -1.36700
H          2.45670       -3.95370       -2.80940
H          3.94710       -3.09100       -3.53390
H          1.17150       -1.85530        3.63850
H          2.61860       -1.09600        2.95340
F          4.16560       -5.14200        0.18870
F          4.82180       -3.21670        1.16160
H          3.13630       -4.23080        1.67260
