19
TSA8_9_Br_NH2_CHF2
C          1.74010       -0.12480        0.00790
C          1.51650       -1.38330        0.43690
Br         1.68620        0.44240       -1.82390
H          1.91790        0.66070        0.73600
N          1.50660       -1.64810        1.83040
C          3.34590       -4.42480        0.16690
C          3.39220       -3.42930       -0.72860
C          2.13990       -2.89880       -1.37140
O          1.26780       -2.42030       -0.40860
C          4.59190       -4.95270        0.81140
H          2.39010       -4.86500        0.43990
H          4.34710       -2.98820       -1.00350
H          1.64340       -3.72330       -1.92420
H          2.40530       -2.11780       -2.10570
H          1.33790       -2.60640        2.16900
H          1.66870       -0.89950        2.52050
F          5.44900       -5.45060       -0.15310
F          5.22380       -3.94240        1.51360
H          4.32840       -5.76940        1.51550
