19
TSA8_9_Br_NH2_CHF2
C          2.98250       -1.83730        0.55050
C          1.45060       -1.58600        0.35190
Br         3.99870       -0.73420       -0.70070
H          3.29360       -1.48580        1.55810
N          0.75810       -1.55770        1.63830
C          3.24960       -3.34650        0.38850
C          2.79600       -3.81830       -1.00760
C          1.62750       -2.96790       -1.53690
O          0.79470       -2.54730       -0.47990
C          4.69040       -3.78370        0.69960
H          2.59530       -3.85530        1.13080
H          3.60000       -3.78460       -1.77470
H          1.04580       -3.56490       -2.26900
H          1.99100       -2.07960       -2.09970
H          0.89310       -2.46710        2.13680
H          1.14430       -0.78310        2.22420
F          5.59320       -3.23210       -0.19130
F          5.03460       -3.40740        1.98580
H          4.76170       -4.89010        0.62860
