17
TSA8_9_Me_H_Cl
C          1.69250       -1.30420        1.08540
C          1.09480        0.07890        1.17620
C          1.34260       -1.93810       -0.27170
H          2.79820       -1.18730        1.12540
H          1.74910        0.93980        1.27010
C          1.27910       -2.17630        2.30090
C         -0.20570       -2.44890        2.36450
C         -0.95530       -2.04300        3.39400
O         -0.11390        0.24990        1.13550
Cl         2.14200       -3.74070        2.28230
H          1.60900       -1.64560        3.22210
H         -0.68270       -2.99480        1.55640
H         -0.52160       -1.49630        4.22560
H         -2.01880       -2.25850        3.40800
H          0.24590       -2.05850       -0.39240
H          1.82650       -2.93090       -0.37890
H          1.71230       -1.29030       -1.09540
