17
TSA8_9_Me_H_Cl
C          1.81340        0.00470        0.08010
C          1.18630       -0.17570        1.25050
C          1.96820       -1.07770       -0.95050
H          2.23100        0.98210       -0.14210
H          1.11330        0.66230        1.93970
C         -0.13740       -3.82120        3.80310
C         -0.50940       -2.99370        2.82060
C         -0.03670       -1.57090        2.75990
O          0.64540       -1.37220        1.58040
Cl        -0.71580       -5.47890        3.83370
H          0.52480       -3.48630        4.59570
H         -1.17350       -3.35340        2.03980
H          0.62860       -1.33310        3.61990
H         -0.92220       -0.89990        2.79750
H          1.50790       -2.03660       -0.63310
H          3.04810       -1.25020       -1.13880
H          1.48480       -0.75160       -1.89470
