19
TSA8_9_CF3_NO2_H
C          2.02490        0.24960        0.11840
C          1.67410        1.05840       -0.93490
C          1.67520        0.19210        1.59310
H          2.70480       -0.56420       -0.11280
N          2.21310        0.74650       -2.22660
C          1.44030        4.98870        0.88010
C          1.36010        3.65450        0.85540
C          0.28770        2.93660        0.07350
O          0.84720        2.15250       -0.91100
H          2.22550        5.47440        1.45000
H          0.73110        5.60700        0.33790
H          2.09520        3.08410        1.41230
H         -0.36010        3.68350       -0.43290
H         -0.40800        2.35470        0.69940
F          2.84250        0.32500        2.32150
F          0.78420        1.12240        2.05050
F          1.13960       -1.05460        1.85630
O          1.92820        1.42830       -3.16450
O          3.02040       -0.27820       -2.40970
