19
TSA8_9_CF3_NO2_H
C          2.21780        1.62310        0.24500
C          1.14600        1.37960       -0.86280
C          2.03480        0.61300        1.39420
H          3.24250        1.47260       -0.16390
N          1.73010        0.80430       -2.05840
C          2.14220        3.08900        0.71730
C          0.70550        3.52300        1.03340
C         -0.28180        2.93570        0.00850
O          0.40030        2.55190       -1.16920
H          2.83550        3.31500        1.55510
H          2.46620        3.71410       -0.14430
H          0.37090        3.26340        2.06030
H         -1.06260        3.68860       -0.22400
H         -0.82750        2.06290        0.44070
F          2.99620        0.82780        2.36580
F          0.78360        0.72560        1.97250
F          2.18160       -0.67540        0.91240
O          1.62510        1.35460       -3.11260
O          2.35560       -0.35120       -1.99130
