20
TSA8_9_CH2F_Cl_CH2F
C          1.84770        0.00550       -0.09100
C          1.06560       -0.98550       -0.54680
C          2.31750        1.15110       -0.94210
H          2.15410       -0.00330        0.95040
Cl         0.57770       -2.25490        0.58140
C         -0.20080       -2.64860       -4.71600
C         -0.41760       -1.66700       -3.82690
C         -0.26320       -1.89460       -2.35120
O          0.66380       -1.00630       -1.84530
C         -0.35790       -2.41620       -6.18760
H          0.09480       -3.63790       -4.37800
H         -0.71960       -0.68170       -4.17120
H          0.06220       -2.93900       -2.14680
H         -1.24410       -1.72130       -1.85900
F          3.69930        1.17120       -0.95910
H          1.94750        2.10090       -0.50240
H          1.94850        1.08460       -1.98680
F         -1.65440       -2.02460       -6.47000
H         -0.13700       -3.35460       -6.73830
H          0.34810       -1.62840       -6.52410
