21
TSA8_9_Br_Et_OH
C          2.96720       -1.36400       -0.25200
C          1.49190       -1.62910       -0.04240
Br         3.24950        0.55040       -0.47060
H          3.49760       -1.65330        0.68110
C          0.99640       -2.29040        1.21870
C          3.63990       -2.16780       -1.39590
C          3.14020       -1.85440       -2.79220
C          1.94570       -2.23980       -3.25040
O          0.67680       -1.25160       -0.86960
O          5.01650       -1.88880       -1.34860
H          3.49080       -3.25530       -1.19260
H          3.80250       -1.33120       -3.47680
H          1.25900       -2.81010       -2.63660
H          1.65660       -2.00290       -4.26930
C          1.52420       -3.71740        1.35000
H         -0.11500       -2.33010        1.20930
H          1.31590       -1.69040        2.09750
H          1.19360       -4.32920        0.48360
H          1.12760       -4.17410        2.28110
H          2.63280       -3.72940        1.40130
H          5.48570       -2.65990       -1.76370
