21
TSA8_9_Br_Et_OH
C          2.08190       -0.36950        0.04160
C          1.48820       -1.58380       -0.08900
Br         2.78430        0.77260       -1.33120
H          2.18050        0.06070        1.03360
C          0.98580       -2.28000        1.15400
C          3.79550       -3.55320       -2.05340
C          3.33650       -2.35980       -2.45840
C          1.86000       -2.07420       -2.50860
O          1.28870       -2.25410       -1.26390
O          5.11980       -3.81690       -2.00270
H          3.09840       -4.33120       -1.75590
H          4.03540       -1.58420       -2.75710
H          1.39310       -2.79530       -3.21200
H          1.64230       -1.06390       -2.90340
C          1.70100       -3.61540        1.34140
H         -0.10620       -2.45640        1.05300
H          1.15040       -1.66720        2.06750
H          1.52370       -4.28010        0.46900
H          1.31830       -4.11990        2.25310
H          2.79420       -3.45080        1.45600
H          5.78890       -3.16290       -2.25100
