21
TSA8_9_Br_Et_OH
C          2.98640       -1.42670       -0.43760
C          1.46830       -1.79360       -0.39540
Br         3.19180        0.38630       -1.12090
H          3.42180       -1.40810        0.58500
C          1.00550       -2.34580        0.96230
C          3.72640       -2.44130       -1.32060
C          3.10120       -2.49530       -2.72720
C          1.58620       -2.23630       -2.66970
O          1.06170       -2.68100       -1.43820
O          5.09540       -2.14390       -1.39020
H          3.58370       -3.43550       -0.83930
H          3.54430       -1.76210       -3.43570
H          1.08930       -2.75640       -3.51420
H          1.36130       -1.15300       -2.80710
C          1.63780       -3.69240        1.31610
H         -0.09800       -2.47050        0.92900
H          1.24100       -1.60800        1.75900
H          1.39640       -4.45090        0.54180
H          1.23770       -4.04240        2.29070
H          2.73940       -3.59980        1.40920
H          5.54420       -2.95690       -1.74150
