17
TSA8_9_CHF2_H_H
C          1.70750        0.52650        1.62380
C          1.01940        1.24000        0.48480
C          1.44700       -0.99000        1.54430
H          2.79930        0.67760        1.47060
H          1.61680        1.79010       -0.23490
C          1.39680        1.11310        3.02920
C         -0.02910        1.00070        3.51460
C         -1.02540        1.74960        3.03370
O         -0.18720        1.16550        0.31780
H          2.02960        0.55450        3.75260
H          1.71420        2.17710        3.08360
H         -0.24690        0.31000        4.32420
H         -0.85560        2.48920        2.26000
H         -2.02710        1.64100        3.43630
F          2.18580       -1.65620        2.50620
F          0.10550       -1.28000        1.72330
H          1.75950       -1.36870        0.54730
