21
TSA8_9_OMe_H_CHF2
C          0.16320       -0.91110        1.39870
C          0.74710        0.48230        1.04320
O          1.11140       -1.94860        1.21690
H         -0.72380       -1.05900        0.73750
H         -0.04050        1.16520        0.64720
C         -0.30570       -0.93300        2.87900
C         -0.81930        0.45770        3.24710
C          0.38830        1.42610        3.15800
O          1.35800        1.08530        2.16320
C         -1.34310       -2.02930        3.15670
H          0.57250       -1.12470        3.53920
H         -1.61600        0.74130        2.52360
H          0.91160        1.35250        4.13460
H          0.04380        2.47570        3.04310
C          1.41120       -2.12310       -0.15250
H          1.87730       -3.12120       -0.28200
H          2.14340       -1.35960       -0.48880
H          0.50420       -2.12010       -0.79930
F         -2.48250       -1.83370        2.39480
F         -0.81270       -3.27460        2.87020
H         -1.62620       -2.00720        4.23000
