19
TSA8_9_NO2_F_CF3
C          2.16260       -0.37420        0.24700
C          1.27290       -0.95580        1.07080
N          2.33800       -0.74520       -1.11860
H          2.77100        0.43450        0.64540
F          1.17970       -0.49980        2.35030
C         -0.45140       -4.41300        2.88730
C         -0.39880       -3.92850        1.63410
C         -0.60330       -2.46840        1.34740
O          0.47410       -1.96610        0.64290
C         -0.28040       -5.87180        3.21540
H         -0.63910       -3.73630        3.71650
H         -0.22490       -4.59230        0.79250
H         -0.78550       -1.89680        2.28470
H         -1.50840       -2.36360        0.71400
O          3.13230       -0.15780       -1.78660
O          1.62430       -1.70660       -1.66710
F         -0.04000       -6.63390        2.08480
F          0.78150       -6.01870        4.08770
F         -1.43130       -6.33250        3.82670
