19
TSA8_9_NO2_Me_Br
C          1.98640        0.09030        0.12680
C          1.54380        1.37340        0.25530
N          1.76020       -0.99910        1.01830
H          2.55390       -0.15010       -0.76990
C          1.80060        2.33220       -0.87820
C          2.98740        3.10260        3.74860
C          2.60120        2.08370        2.97480
C          1.15120        1.80560        2.68120
O          0.88710        1.92070        1.32350
Br         4.84390        3.39450        4.09880
H          2.26100        3.77610        4.19270
H          3.35170        1.42520        2.54780
H          0.49690        2.53260        3.20910
H          0.88650        0.82880        3.09730
O          2.31310       -2.03360        0.80400
O          0.74980       -0.99440        1.85570
H          2.41320        3.18150       -0.50910
H          0.83120        2.72420       -1.25070
H          2.33420        1.86440       -1.73320
