20
TSA8_9_NH2_CN_CBr3
C          1.62570       -0.01370        0.09920
C          1.44860       -1.13040        0.84670
N          1.73070        0.01240       -1.30880
H          1.63440        0.94850        0.60390
C          1.34540       -0.94620        2.26930
C          3.45140       -2.80550       -2.25760
C          2.83390       -3.28880       -1.17120
C          1.40710       -2.93910       -0.87500
O          1.31070       -2.41230        0.39530
C          4.86530       -3.13270       -2.67020
H          2.89620       -2.14110       -2.91190
H          3.33190       -3.96550       -0.48410
H          0.83720       -3.89370       -0.89460
H          0.92520       -2.28500       -1.62950
H          2.69950       -0.00680       -1.65550
H          1.25520        0.79150       -1.78780
N          1.26190       -0.78770        3.41120
Br         4.78610       -3.95510       -4.41840
Br         5.87410       -1.48800       -2.81000
Br         5.83480       -4.33980       -1.48760
