20
TSA8_9_NH2_CN_CBr3
C          2.58510       -1.02920       -0.71510
C          1.38580       -1.35250        0.24780
N          2.14110        0.13360       -1.50390
H          3.48380       -0.77500       -0.10770
C          1.60270       -0.75060        1.57710
C          2.95590       -2.18760       -1.72140
C          2.40270       -3.55020       -1.28930
C          0.98830       -3.35180       -0.80450
O          1.07940       -2.71270        0.44080
C          4.46640       -2.32720       -2.10500
H          2.40220       -1.95970       -2.65660
H          2.97350       -4.00120       -0.44690
H          0.50550       -4.33800       -0.66510
H          0.36670       -2.78530       -1.54170
H          2.87590        0.51910       -2.13180
H          1.71290        0.89000       -0.92290
N          1.79500       -0.29490        2.62430
Br         4.61470       -3.50220       -3.64820
Br         5.31430       -0.65530       -2.60030
Br         5.56160       -3.10450       -0.68880
