16
TSA8_9_NO2_H_H
C          1.67950       -1.03240        1.70290
C          1.11400        0.39670        1.62500
N          1.29800       -1.78650        0.51620
H          2.79030       -0.98310        1.72700
H          1.53880        1.06420        2.40930
C          1.18270       -1.67100        3.01760
C         -0.34070       -1.54330        3.13860
C         -0.73480       -0.07540        2.93700
O         -0.30290        0.39170        1.66960
H          1.50450       -2.73090        3.10070
H          1.63320       -1.11660        3.87030
H         -0.85450       -2.16300        2.37560
H         -0.33280        0.56320        3.75660
H         -1.84060        0.00340        2.98830
O          1.63960       -1.39860       -0.56020
O          0.65660       -2.93280        0.60670
