20
TSA8_9_CHF2_CCl3_H
C          2.73870       -1.31020       -0.13670
C          1.30590       -1.63470        0.36340
C          2.67750       -0.32600       -1.32880
H          3.29840       -0.72740        0.62640
C          1.11460       -1.85530        1.88370
C          3.54140       -2.59800       -0.43580
C          2.65810       -3.81850       -0.72150
C          1.30020       -3.41780       -1.28310
O          0.54870       -2.54900       -0.43750
H          4.15520       -2.87270        0.44990
H          4.25980       -2.41910       -1.26320
H          2.45620       -4.37430        0.21450
H          0.71600       -4.35300       -1.41240
H          1.40410       -2.99220       -2.29610
F          3.95790        0.04440       -1.70250
F          2.02420       -0.82860       -2.43220
H          2.14140        0.59250       -1.00690
Cl         2.00920       -3.24760        2.53990
Cl         1.63060       -0.40030        2.77600
Cl        -0.61660       -2.09300        2.23740
