26
TSA8_9_CHF2_CBr3_Et
C          2.87360       -1.56750       -1.07730
C          1.58300       -2.34700       -0.81610
C          2.58870       -0.05640       -0.92020
H          3.59930       -1.81340       -0.27500
C          1.40040       -3.22060        0.41490
C          3.55530       -1.87600       -2.46040
C          2.64380       -1.56450       -3.63370
C          2.93710       -0.61160       -4.52510
O          0.63960       -2.20540       -1.58080
C          4.05110       -3.33200       -2.60560
H          4.45810       -1.22880       -2.54050
H          1.72940       -2.13110       -3.77200
H          2.26420       -0.42020       -5.35420
H          3.84140       -0.01700       -4.43790
F          3.75750        0.67180       -1.05510
F          1.66550        0.39360       -1.84810
H          2.18020        0.14180        0.09330
Br         1.65720       -2.16800        2.02310
Br        -0.39050       -3.97670        0.50260
Br         2.63340       -4.70960        0.44890
C          5.22630       -3.66290       -1.68090
H          4.42800       -3.47780       -3.64280
H          3.21300       -4.04380       -2.44700
H          6.08130       -2.98720       -1.89460
H          5.55250       -4.70920       -1.86140
H          4.96150       -3.56350       -0.61300
