26
TSA8_9_CHF2_CBr3_Et
C          3.02200       -1.90020       -1.16650
C          1.49400       -2.18460       -1.25670
C          3.35440       -0.54270       -0.50590
H          3.47160       -2.68200       -0.52670
C          0.69370       -2.45810        0.03330
C          3.63880       -2.00210       -2.60910
C          2.53100       -2.15440       -3.67300
C          1.39440       -1.15430       -3.38850
O          0.83490       -1.23310       -2.07610
C          4.62200       -3.18640       -2.76780
H          4.19090       -1.06590       -2.85300
H          2.09480       -3.17770       -3.62830
H          0.58970       -1.32170       -4.13380
H          1.79130       -0.12850       -3.53610
F          4.72620       -0.36650       -0.44720
F          2.80100        0.51290       -1.21120
H          2.97870       -0.51420        0.53220
Br         0.32480       -0.85740        1.06730
Br        -1.01590       -3.21300       -0.47530
Br         1.56830       -3.76980        1.16690
C          5.87510       -3.06950       -1.89970
H          4.96080       -3.23160       -3.82690
H          4.10070       -4.14070       -2.53110
H          6.43080       -2.14190       -2.14920
H          6.53580       -3.94200       -2.09270
H          5.63240       -3.06640       -0.81730
