22
TSA8_9_CF3_NH2_CF3
C          2.35420        2.12220        0.51540
C          1.70260        1.71180       -0.81040
C          2.59120        0.86770        1.40860
H          3.34750        2.54080        0.24250
N          2.35390        0.90820       -1.68660
C          1.55670        3.30400        1.19550
C          0.17630        2.89710        1.67770
C         -0.94110        3.42400        1.16690
O          0.59620        2.13290       -1.11550
C          2.29980        4.01790        2.34810
H          1.45870        4.08280        0.40400
H          0.08290        2.16810        2.47560
H         -0.90390        4.16410        0.37400
H         -1.90910        3.11190        1.54630
F          3.28200        1.18840        2.55750
F          1.39220        0.27020        1.75090
F          3.35610       -0.07200        0.74440
H          1.91200        0.64910       -2.58130
H          3.30530        0.56460       -1.49940
F          2.38480        3.23550        3.48330
F          3.57230        4.38210        1.94520
F          1.60920        5.16940        2.68610
