24
TSA8_9_Et_CN_CCl3
C          2.38530       -1.59830        0.67100
C          1.77740       -0.54940        1.61860
C          2.05710       -1.29550       -0.84160
H          3.47640       -1.45550        0.83650
C          1.67060        0.83950        1.22670
C          2.06100       -3.12240        1.02100
C          1.15880       -3.31890        2.22610
C         -0.16570       -3.17050        2.13360
O          1.76320       -0.76160        2.82020
C          3.29280       -4.08150        1.08990
H          1.46890       -3.54730        0.18700
H          1.58370       -3.58230        3.19020
H         -0.78970       -3.31260        3.00860
H         -0.63030       -2.91320        1.18670
C          3.26560       -0.89570       -1.68790
H          1.26800       -0.52030       -0.94910
H          1.62600       -2.18200       -1.34540
H          3.64910        0.09960       -1.39180
H          2.96330       -0.86710       -2.75800
H          4.07960       -1.63780       -1.60100
N          1.57620        1.95030        0.92320
Cl         4.25720       -3.84740        2.57550
Cl         2.73110       -5.78000        1.05380
Cl         4.39730       -3.90550       -0.29530
