21
TSA8_9_Br_CBr3_OMe
C          3.18990        1.88840       -0.14680
C          1.69170        1.76980       -0.58900
Br         3.49520        0.40570        1.08710
H          3.87670        1.74520       -1.00770
C          1.48280        1.64250       -2.10910
C          3.41460        3.30210        0.45620
C          2.43200        3.60100        1.60230
C          1.08210        2.91330        1.33330
O          0.86170        2.80470       -0.05840
O          4.75110        3.71160        0.72140
H          3.09510        3.98220       -0.36230
H          2.77890        3.29710        2.61150
H          0.26740        3.49520        1.81100
H          1.04930        1.90350        1.80570
Br         2.41130        0.08800       -2.81080
Br        -0.40290        1.39550       -2.48570
Br         2.08980        3.22560       -3.05550
C          5.46570        2.83290        1.55660
H          6.35970        3.37020        1.93400
H          5.83820        1.96400        0.97560
H          4.89250        2.52920        2.45700
