19
TSA8_9_CCl3_OH_CN
C          1.74220        1.52670       -0.68880
C          1.61640        0.67650       -1.94800
C          2.29520        0.92890        0.68070
H          0.69460        1.41630       -0.45910
O          2.07430       -0.58810       -2.02040
C          1.78300        3.09610       -0.97720
C          0.93790        3.80600        0.01550
C         -0.37000        3.50640        0.06990
O          0.85480        1.06770       -2.82090
C          3.17640        3.74800       -1.14870
H          1.31750        3.27820       -1.97830
H          1.37550        4.48630        0.72950
H         -0.82270        2.82030       -0.64400
H         -1.00880        3.93170        0.82850
Cl         2.45800        2.14980        1.98520
Cl         1.10900       -0.25860        1.33040
Cl         3.86120        0.09320        0.59050
H          1.77490       -1.14320       -2.76320
N          4.17990        4.28870       -1.28500
