18
TSA8_9_OH_CF3_Cl
C          1.78850       -0.22570       -0.11960
C          1.52220       -1.30370       -0.89780
O          2.16280        0.96310       -0.63220
H          1.67990       -0.29180        0.95860
C          1.04640       -2.59690       -0.27810
C          3.07040       -1.35210       -5.32420
C          3.19750       -1.41420       -3.99450
C          2.42010       -0.51670       -3.07700
O          1.62950       -1.30440       -2.25960
Cl         4.00240       -2.42660       -6.35400
H          2.39310       -0.64220       -5.78900
H          3.88220       -2.13440       -3.55550
H          1.76560        0.17220       -3.65340
H          3.16330        0.07480       -2.51030
H          2.33660        1.71800       -0.05330
F         -0.19540       -2.91610       -0.79550
F          1.93670       -3.60400       -0.60070
F          0.94410       -2.52350        1.10100
