20
TSA8_9_CHF2_CN_NH2
C          2.34440        0.03770       -1.68770
C          1.10810       -0.84950       -1.30590
C          2.19640        1.37380       -0.89180
H          3.26880       -0.44740       -1.29110
C          1.52640       -2.14310       -0.77970
C          2.38910        0.04520       -3.25740
C          1.09260        0.63910       -3.82290
C         -0.10660        0.16580       -2.98900
O          0.18770       -1.06730       -2.36580
N          3.58370        0.58750       -3.91770
H          2.37290       -1.03990       -3.51960
H          1.09290        1.75270       -3.84480
H         -0.97820        0.06050       -3.66540
H         -0.40060        0.91750       -2.21940
F          3.42150        1.87560       -0.49640
F          1.49420        2.35550       -1.56020
H          1.64040        1.16510        0.05450
N          1.87560       -3.14970       -0.34230
H          3.39400        1.53770       -4.31230
H          3.74470        0.00190       -4.77810
