20
TSA8_9_I_Et_F
C          2.97850        0.23950       -1.31730
C          1.55770       -0.20140       -1.59180
I          3.16940        0.78340        0.75270
H          3.64290       -0.63950       -1.46230
C          1.26150       -1.59510       -2.08460
C          3.52620        1.34870       -2.24880
C          2.84970        2.69620       -2.13990
C          1.62550        2.94520       -2.61330
O          0.62550        0.55170       -1.35730
F          4.86290        1.52680       -1.93310
H          3.48600        1.01090       -3.30730
H          3.40250        3.51860       -1.69460
H          1.04310        2.18050       -3.11240
H          1.20450        3.94160       -2.52200
C          1.86770       -1.84550       -3.46340
H          0.16130       -1.74140       -2.15650
H          1.66410       -2.33360       -1.35870
H          1.45580       -1.12190       -4.19900
H          1.61690       -2.87450       -3.79620
H          2.97280       -1.74740       -3.43720
