20
TSA8_9_I_Et_F
C          1.97560       -0.06510       -0.25090
C          1.50500       -0.20060       -1.51830
I          2.49060        1.67490        0.85490
H          2.11040       -0.95880        0.35080
C          1.18370       -1.58510       -2.02750
C          3.84860        2.59040       -3.72250
C          3.26860        2.07060       -2.63590
C          1.77520        2.10310       -2.43540
O          1.27730        0.81750       -2.40090
F          5.19760        2.52710       -3.86710
H          3.25770        3.06210       -4.50150
H          3.89460        1.60080       -1.88460
H          1.28980        2.62710       -3.28600
H          1.49200        2.66810       -1.52920
C          2.03590       -1.91010       -3.25200
H          0.10900       -1.62730       -2.30510
H          1.36920       -2.36530       -1.25640
H          1.84360       -1.17920       -4.06690
H          1.78610       -2.92550       -3.62350
H          3.11470       -1.88080       -2.98640
