20
TSA8_9_I_Et_F
C          2.99030        0.37970       -1.32330
C          1.49180        0.14480       -1.69460
I          3.11060        1.34360        0.59400
H          3.52970       -0.58300       -1.19100
C          1.16720       -1.31390       -2.05150
C          3.65780        1.21750       -2.41960
C          2.89600        2.53150       -2.64960
C          1.38620        2.34000       -2.42500
O          1.01370        1.01240       -2.72280
F          4.98950        1.46640       -2.13870
H          3.60300        0.63200       -3.36200
H          3.23730        3.35910       -1.99080
H          0.82340        3.05430       -3.06040
H          1.10580        2.58490       -1.37400
C          1.86050       -1.79130       -3.32820
H          0.06830       -1.40320       -2.18950
H          1.45940       -1.97220       -1.20540
H          1.56220       -1.16020       -4.19190
H          1.56390       -2.84050       -3.53780
H          2.96370       -1.75980       -3.21580
