22
TSA8_9_Et_CN_OH
C          1.18730        1.65820       -0.44180
C          2.04280        0.80430       -1.36450
C          1.82200        1.91480        0.96710
H          0.25610        1.07310       -0.26130
C          1.55370       -0.48860       -1.78670
C          0.78630        2.99930       -1.12040
C          0.21490        2.80930       -2.50930
C         -0.87750        2.08310       -2.75350
O          3.10280        1.21650       -1.80090
O          1.92030        3.82590       -1.21900
H          0.02430        3.49100       -0.46890
H          0.71870        3.28370       -3.34820
H         -1.23380        1.98050       -3.77390
H         -1.41550        1.58790       -1.95350
C          3.10070        1.12770        1.27560
H          1.05850        1.68330        1.74280
H          2.07760        2.98710        1.10210
H          2.93230        0.03550        1.18030
H          3.43940        1.35390        2.30810
H          3.91360        1.44250        0.58600
N          1.15390       -1.52500       -2.11410
H          1.59420        4.76320       -1.25590
