19
TSA8_9_F_CHF2_NH2
C          1.96490        2.12570       -0.57180
C          0.84860        2.05770       -1.58440
F          1.53910        1.47910        0.57480
H          2.85800        1.58820       -0.96080
C          1.04790        1.35490       -2.89740
C          2.35330        3.59280       -0.26770
C          3.45630        3.69090        0.77070
C          3.29560        3.28680        2.03570
O         -0.23160        2.56840       -1.32570
N          2.77930        4.25140       -1.50630
H          1.46280        4.13350        0.12380
H          4.41190        4.12650        0.49150
H          2.35860        2.86640        2.38350
H          4.11140        3.38900        2.74390
F         -0.10930        1.39980       -3.65580
F          2.07140        1.96130       -3.60160
H          1.31190        0.29300       -2.71110
H          3.65180        3.80340       -1.87240
H          2.97500        5.26170       -1.31740
