19
TSA8_9_F_CHF2_NH2
C          1.80180        0.13450       -0.11090
C          1.51250        1.25190       -0.81070
F          2.14330        0.15380        1.20290
H          1.73570       -0.83690       -0.58960
C          1.09420        1.15190       -2.25080
C          2.66540        5.15120       -0.45090
C          3.20940        4.08950        0.15930
C          2.34890        3.00450        0.73190
O          1.56930        2.51060       -0.29660
N          3.47860        6.14690       -1.04300
H          1.58410        5.24650       -0.51540
H          4.28970        3.98850        0.21590
H          1.69610        3.41270        1.53260
H          3.02370        2.24240        1.16560
F         -0.16820        1.69400       -2.40170
F          1.98550        1.86350       -3.02940
H          1.07420        0.09890       -2.60920
H          4.50660        6.07070       -1.03260
H          3.03910        6.93800       -1.53400
