17
TSA8_9_I_CCl3_Br
C          2.80830       -1.79230       -0.64810
C          1.52600       -2.28060        0.00050
I          2.58240        0.29070       -1.12920
H          3.62560       -1.79380        0.10470
C          1.46390       -2.62510        1.47820
C          3.27860       -2.66430       -1.84910
C          2.25780       -2.86590       -2.95250
C          1.82390       -1.89010       -3.75560
O          0.50940       -2.34340       -0.67610
Br         3.82340       -4.42190       -1.21700
H          4.19510       -2.21340       -2.28640
H          1.86890       -3.86530       -3.12690
H          1.09990       -2.11520       -4.53210
H          2.18460       -0.87520       -3.67480
Cl         2.57670       -3.95270        1.88670
Cl         1.90740       -1.19750        2.44830
Cl        -0.18010       -3.12710        1.96850
