19
TSA8_9_CN_OMe_Cl
C          2.06590       -1.55000        0.95520
C          2.70620       -0.70010        2.01400
C          2.49180       -1.23090       -0.41630
H          1.01470       -1.17220        1.02270
O          2.19880        0.55960        2.15860
C          2.04410       -3.06840        1.23770
C          0.76240       -3.62040        0.67410
C         -0.39650       -3.26370        1.25170
O          3.39020       -1.20230        2.90030
Cl         3.48060       -3.91790        0.57430
H          2.02050       -3.29000        2.32590
H          0.75880       -4.27770       -0.19080
H         -0.38930       -2.61430        2.12900
H         -1.35010       -3.59900        0.87160
N          2.82660       -0.97770       -1.49530
C          2.10770        1.27460        3.33480
H          2.59820        2.25770        3.20610
H          2.54810        0.73530        4.19830
H          1.03020        1.44500        3.55190
