19
TSA8_9_CN_OMe_Cl
C          1.59430        0.03130        0.08720
C          1.56690       -0.14250        1.42760
C          1.72050       -1.01480       -0.90290
H          1.49670        1.03380       -0.30870
O          1.42470        0.95980        2.20230
C          1.89040       -4.73010        1.87030
C          1.80370       -3.56020        1.23530
C          0.91340       -2.46120        1.72410
O          1.67310       -1.35560        2.03420
Cl         2.94110       -5.98990        1.24830
H          1.31620       -4.91820        2.77180
H          2.39140       -3.39660        0.33960
H          0.35870       -2.76380        2.63950
H          0.15340       -2.22270        0.95290
N          1.81910       -1.82260       -1.72650
C          1.89370        1.05500        3.49480
H          2.56250        1.93410        3.51290
H          2.48830        0.16280        3.78280
H          1.07800        1.19870        4.23890
