15
TSA8_9_H_Cl_CN
C          1.03480       -1.75050        0.30890
C          2.06440       -1.49520        1.38460
H          1.34520       -1.70450       -0.75340
H          0.51580       -0.76590        0.36940
Cl         3.73110       -1.17140        0.95260
C          0.00710       -2.89550        0.69420
C         -1.26210       -2.15440        0.90400
C         -1.48310       -1.61980        2.10300
O          1.71350       -1.31970        2.52990
C         -0.21850       -3.97160       -0.28220
H          0.32220       -3.40170        1.62080
H         -1.86510       -1.83640        0.05180
H         -0.81260       -1.84540        2.92890
H         -2.28100       -0.90860        2.23940
N         -0.44790       -4.86050       -0.99650
