20
TSA8_9_CN_OMe_CN
C          2.66320        1.27110       -0.58600
C          1.47400        1.04320       -1.51180
C          2.21140        0.83750        0.77150
H          3.44320        0.56260       -0.92140
O          1.55850        0.08820       -2.46090
C          3.13840        2.80150       -0.66790
C          2.44270        3.47690        0.45790
C          1.18340        3.84640        0.31620
O          0.44390        1.69760       -1.42120
C          4.56120        3.18960       -0.53780
H          2.86240        3.22620       -1.66390
H          2.85770        3.35440        1.45930
H          0.73330        3.86670       -0.66680
H          0.59810        4.02840        1.20210
N          1.80080        0.56020        1.82070
C          1.35920        0.37850       -3.78790
H          1.35930       -0.56250       -4.37310
H          2.20920        1.01020       -4.11930
H          0.40350        0.92310       -3.95550
N          5.63250        3.62690       -0.44980
