20
TSA8_9_CN_OMe_CN
C          1.57180        0.01160       -0.07370
C          1.34600        0.69700       -1.22440
C          1.72430        0.53870        1.26930
H          1.51740       -1.07700       -0.11300
O          1.29400       -0.03340       -2.36480
C          3.47430        4.28370       -0.68640
C          2.79680        3.23300       -0.20810
C          1.32510        3.06400       -0.42970
O          1.14300        2.04590       -1.33540
C          4.90390        4.32290       -0.51230
H          2.96800        5.07470       -1.22600
H          3.33510        2.44770        0.31190
H          0.89640        3.98650       -0.87940
H          0.77300        2.88320        0.51370
N          1.84830        0.93930        2.34420
C          1.39430        0.53540       -3.62170
H          1.53550       -0.26380       -4.37330
H          2.29320        1.19280       -3.67230
H          0.48820        1.12090       -3.88230
N          6.04580        4.27940       -0.33070
