20
TSA8_9_CN_OMe_CN
C          2.76940        1.26930       -0.47480
C          1.37120        1.21480       -1.14080
C          2.53730        0.90910        0.93840
H          3.45560        0.51730       -0.92110
O          1.23310        0.20420       -2.12730
C          3.29920        2.71100       -0.68170
C          2.34210        3.70060       -0.02320
C          0.88430        3.34780       -0.37140
O          0.80740        2.48110       -1.49330
C          4.68450        3.00700       -0.29170
H          3.27970        2.90120       -1.77600
H          2.45600        3.69940        1.08880
H          0.36720        4.30190       -0.59420
H          0.36120        2.89260        0.50120
N          2.33370        0.65380        2.04960
C          1.43890        0.71140       -3.42780
H          1.56080       -0.14780       -4.12120
H          2.36470        1.32190       -3.50990
H          0.54240        1.27460       -3.76690
N          5.76590        3.31140       -0.01160
