20
TSA8_9_I_Cl_Et
C          3.08090       -0.98510       -1.42220
C          1.60890       -0.85290       -1.12110
I          4.12240        0.26360       -0.00130
H          3.36450       -2.04000       -1.21740
Cl         0.68900       -2.25160       -0.58870
C          3.36480       -0.69570       -2.92590
C          3.15910        0.76610       -3.27060
C          2.21600        1.16710       -4.12890
O          1.04150        0.22260       -1.23620
C          4.74420       -1.19560       -3.43040
H          2.63390       -1.31340       -3.49840
H          3.79310        1.51800       -2.81210
H          1.55610        0.45510       -4.61450
H          2.10000        2.22310       -4.35060
C          5.98460       -0.52350       -2.84140
H          4.77550       -1.04210       -4.53190
H          4.82120       -2.28950       -3.24640
H          5.96830        0.57170       -3.01710
H          6.88830       -0.93900       -3.33500
H          6.08110       -0.73910       -1.76230
