19
TSA8_9_OMe_CN_I
C          1.44530       -1.29480       -0.82160
C          1.57730       -1.69540        0.67590
O          2.33510       -0.24100       -1.15200
H          0.38060       -1.00790       -0.99760
C          1.15620       -0.65040        1.62560
C          1.75220       -2.59750       -1.56750
C          0.56400       -3.54040       -1.31710
C         -0.02180       -3.33260        0.10500
O          0.98790       -2.95860        1.02220
I          2.21560       -2.46320       -3.65620
H          2.67440       -3.04710       -1.12640
H         -0.26260       -3.31270       -2.02950
H         -0.53780       -4.26160        0.42950
H         -0.81440       -2.54500        0.10470
C          1.76330        0.64250       -2.11610
H          2.25210        0.49800       -3.09940
H          1.91230        1.68790       -1.78380
H          0.66620        0.54810       -2.28460
N          0.84980        0.17660        2.34350
