21
TSA8_9_CF3_CN_CHF2
C          2.55410        1.65730       -0.74100
C          1.44860        0.77840       -1.44290
C          2.28970        1.51490        0.81250
H          3.53540        1.16990       -0.94450
C          1.89850       -0.50270       -2.02800
C          2.46360        3.08350       -1.46530
C          1.05100        3.60900       -1.26540
C          0.00600        2.54960       -1.57890
O          0.57800        1.48360       -2.31320
C          3.35660        4.35780       -1.44870
H          2.58130        2.80280       -2.53610
H          0.89290        4.06840       -0.26270
H         -0.75410        3.06590       -2.19380
H         -0.48710        2.17990       -0.65090
F          3.47710        1.40040        1.50840
F          1.57370        2.56470        1.34760
F          1.56170        0.35790        1.08810
N          2.22450       -1.51410       -2.49140
F          3.34590        5.04460       -0.25030
F          4.64970        4.13770       -1.88060
H          2.90490        5.05170       -2.21320
