21
TSA8_9_CCl3_OH_CBr3
C          0.97510       -1.44010        1.61250
C          1.44830        0.06560        1.54550
C          1.86130       -2.32740        0.67200
H         -0.04120       -1.49730        1.16430
O          2.81760        0.17120        1.79970
C          0.83220       -1.77280        3.14490
C         -0.21400       -0.77810        3.73800
C         -0.43250        0.48010        2.88750
O          0.78570        0.98600        2.40830
C          0.48210       -3.21840        3.63610
H          1.81090       -1.52240        3.60990
H         -1.22230       -1.22730        3.86700
H         -0.93540        1.24820        3.51070
H         -1.11700        0.28240        2.03180
Cl         1.13090       -3.92200        0.35110
Cl         1.96620       -1.57150       -0.94670
Cl         3.53520       -2.55690        1.26000
H          3.19490        0.58010        0.98000
Br         0.22510       -3.22880        5.56980
Br        -1.15900       -3.89890        2.84120
Br         1.90950       -4.51260        3.39690
