15
TSA8_9_H_OH_H
C          1.03120       -0.67770       -1.28020
C          1.77070       -1.55800       -0.30410
H          1.77570       -0.10430       -1.87300
H          0.39320        0.05150       -0.73490
O          1.57940       -1.43100        1.02640
C          0.15380       -1.49740       -2.23370
C         -0.92600       -2.23170       -1.48160
C         -1.02800       -3.56330       -1.50970
O          2.55730       -2.39570       -0.71680
H         -0.33360       -0.80890       -2.95650
H          0.79420       -2.20050       -2.81150
H         -1.64150       -1.65890       -0.89860
H         -0.33030       -4.16920       -2.07960
H         -1.81850       -4.05740       -0.95420
H          0.96210       -0.78300        1.39380
