15
TSA8_9_H_OH_H
C          2.24750       -0.20680        0.06610
C          1.37640       -1.21790       -0.01730
H          2.69180        0.21090       -0.83240
H          2.52320        0.21330        1.02830
O          0.82240       -1.73890        1.10440
C         -1.13090       -2.74390       -3.61850
C         -0.91440       -2.19650       -2.41890
C          0.14090       -2.71530       -1.48560
O          1.06090       -1.71320       -1.24170
H         -1.90260       -2.34120       -4.26640
H         -0.54690       -3.59130       -3.96460
H         -1.51930       -1.35040       -2.10850
H          0.67380       -3.58290       -1.93070
H         -0.35570       -3.06250       -0.55430
H          1.03000       -1.40790        1.99030
