22
TSA8_9_Et_NH2_H
C          2.30440       -0.10800        1.40730
C          1.34400        1.00110        1.79580
C          1.80660       -0.73100        0.07600
H          3.30650        0.34310        1.23040
N          1.76640        2.28540        1.87550
C          2.40650       -1.09070        2.60080
C          3.46780       -2.14400        2.43920
C          3.18450       -3.44840        2.51650
O          0.17470        0.73680        2.03850
H          2.68870       -0.50750        3.50480
H          1.41160       -1.55210        2.79200
H          4.49480       -1.83440        2.26790
H          2.17030       -3.79420        2.69290
H          3.97430       -4.18320        2.40090
C          2.78650       -1.69100       -0.60000
H          1.65270        0.10060       -0.64760
H          0.82890       -1.23860        0.22750
H          3.76120       -1.18660       -0.77210
H          2.37230       -1.99960       -1.58290
H          2.94080       -2.61280       -0.01470
H          1.10960        3.03470        2.13900
H          2.74540        2.53600        1.67550
