23
TSA8_9_CF3_Et_F
C          1.98920       -0.88880       -1.58170
C          0.71490       -1.68050       -1.33620
C          1.74450        0.58600       -1.18940
H          2.77980       -1.27510       -0.90190
C          0.65970       -2.77650       -0.30070
C          2.44760       -1.12790       -3.05240
C          3.76130       -0.49210       -3.44280
C          3.90200        0.81520       -3.67930
O         -0.29600       -1.41260       -1.97040
F          2.59690       -2.49400       -3.22910
H          1.66650       -0.79150       -3.76910
H          4.62480       -1.13440       -3.59380
H          3.06480        1.49890       -3.59440
H          4.86660        1.20890       -3.98320
F          2.92700        1.29870       -1.17520
F          0.85170        1.18550       -2.06140
F          1.22090        0.64420        0.09160
C          1.59960       -3.93160       -0.63820
H         -0.37480       -3.18040       -0.24070
H          0.92630       -2.35450        0.69180
H          1.32510       -4.37360       -1.61970
H          1.51360       -4.71790        0.14090
H          2.65540       -3.59220       -0.67270
