23
TSA8_9_CF3_Et_F
C          2.78050       -1.12160       -1.26610
C          1.29920       -1.28750       -1.73580
C          2.96100        0.24350       -0.56970
H          3.04690       -1.89430       -0.51300
C          0.47580       -2.28970       -0.91550
C          3.71040       -1.33220       -2.47910
C          3.28670       -0.48840       -3.68800
C          1.75260       -0.45160       -3.81800
O          1.17210       -1.54080       -3.12980
F          5.04410       -1.13080       -2.17050
H          3.59080       -2.39480       -2.78620
H          3.67800        0.55100       -3.67450
H          1.47470       -0.48030       -4.89160
H          1.34270        0.51020       -3.42950
F          4.26300        0.38120       -0.12290
F          2.66990        1.29290       -1.42150
F          2.11750        0.31950        0.52410
C          0.91590       -3.73770       -1.14330
H         -0.58980       -2.19570       -1.21480
H          0.55420       -2.03880        0.16400
H          0.80900       -4.01070       -2.21420
H          0.27590       -4.41680       -0.54200
H          1.97020       -3.89120       -0.83600
