22
TSA8_9_CBr3_CCl3_NH2
C          1.70940       -1.49620        1.19040
C          2.88400       -0.90590        1.97700
C          2.16190       -1.88760       -0.26160
H          0.94210       -0.71430        1.04790
C          2.95020        0.53030        2.47240
C          1.02370       -2.59810        2.07700
C         -0.28880       -3.12600        1.53310
C         -1.34540       -2.33460        1.32130
O          3.83120       -1.63280        2.24340
N          1.92850       -3.71260        2.37020
H          0.77760       -2.11140        3.04900
H         -0.39000       -4.18740        1.32090
H         -1.30360       -1.27070        1.52820
H         -2.26760       -2.75820        0.93710
Br         0.70110       -2.51050       -1.38180
Br         2.83840       -0.30710       -1.17000
Br         3.58050       -3.21720       -0.36860
Cl         3.08560        0.52220        4.24880
Cl         4.40560        1.31310        1.80340
Cl         1.54610        1.54910        2.04480
H          2.01520       -4.34040        1.54190
H          1.52810       -4.28420        3.14950
