22
TSA8_9_CBr3_CCl3_NH2
C          2.06740       -0.15170        0.00800
C          2.00910       -0.23950        1.37590
C          1.79890       -1.07410       -1.17440
H          2.41610        0.80980       -0.36310
C          2.49720        0.97010        2.16600
C          0.43340       -4.29600        3.18940
C          0.93440       -3.54360        2.19980
C          0.48860       -2.12240        1.96760
O          1.56780       -1.28480        2.13530
N          0.88850       -5.62330        3.39050
H         -0.32700       -3.89590        3.85430
H          1.69910       -3.96870        1.56110
H         -0.27010       -1.84800        2.73250
H         -0.00730       -1.96940        0.99330
Br         0.35890       -0.31330       -2.22090
Br         3.39120       -1.02560       -2.27610
Br         1.44840       -2.96150       -0.96410
Cl         2.36500        0.71990        3.93240
Cl         4.21530        1.29500        1.80330
Cl         1.53140        2.41740        1.76280
H          1.61150       -6.03800        2.78320
H          0.49730       -6.18700        4.15810
