21
TSA8_9_OMe_CCl3_I
C          1.95490        1.16820       -0.95610
C          1.46660        0.31050       -2.11890
O          1.13820        0.89340        0.17530
H          3.00990        0.83080       -0.83210
C          1.42570       -1.20510       -2.05640
C          1.96800        2.69730       -1.27030
C          0.63400        3.38990       -1.05410
C         -0.48990        3.10570       -1.71940
O          1.13360        0.83940       -3.16990
I          3.44120        3.70000       -0.06030
H          2.33720        2.86960       -2.30410
H          0.58020        4.17840       -0.30920
H         -0.54280        2.34560       -2.48190
H         -1.39710        3.65760       -1.49500
C          1.86360        0.93030        1.38590
H          1.94480        1.97050        1.75870
H          2.85860        0.43720        1.31910
H          1.29290        0.35730        2.14470
Cl         2.44940       -1.87310       -3.35340
Cl         2.00440       -1.89330       -0.51230
Cl        -0.24860       -1.75710       -2.31230
