21
TSA8_9_OMe_CCl3_I
C          1.35050       -0.03030       -0.05500
C          1.31940       -0.05830       -1.41230
O          1.34350        1.13340        0.63420
H          1.40190       -0.95170        0.51450
C          1.38260       -1.36220       -2.19270
C          1.76260        4.43530       -2.41230
C          1.70300        3.33680       -1.65400
C          0.65010        2.28650       -1.85650
O          1.24920        1.07870       -2.16970
I          3.25740        5.88540       -2.07090
H          1.04640        4.60570       -3.21020
H          2.43130        3.19670       -0.86110
H         -0.03640        2.55620       -2.68730
H          0.01680        2.21720       -0.95070
C          1.32800        1.18240        2.00910
H          1.33970        2.24300        2.33410
H          2.22250        0.66880        2.42180
H          0.40530        0.69890        2.39530
Cl         2.80200       -1.32470       -3.26810
Cl         1.49270       -2.85610       -1.21020
Cl        -0.08180       -1.49460       -3.19830
