21
TSA8_9_OMe_CCl3_I
C          2.00030        1.34460       -0.67350
C          0.90570        0.44960       -1.36430
O          1.49930        1.88270        0.53870
H          2.94780        0.78320       -0.49950
C          1.43680       -0.89090       -1.91150
C          2.33610        2.51190       -1.61210
C          1.07230        3.32650       -1.93490
C         -0.17040        2.42260       -1.95610
O          0.18180        1.12960       -2.39280
I          3.88370        3.77670       -0.84100
H          2.71450        2.08390       -2.56370
H          0.87720        4.14080       -1.20430
H         -0.93940        2.86280       -2.62360
H         -0.63820        2.36560       -0.94480
C          1.58070        0.92640        1.57270
H          1.21950        1.39640        2.51010
H          2.63170        0.61110        1.75670
H          0.92060        0.05570        1.36900
Cl         2.63480       -0.64980       -3.21140
Cl         2.17870       -1.86440       -0.61320
Cl         0.07910       -1.83920       -2.57110
