17
TSA8_9_Cl_CH2F_H
C          2.93900       -1.54090       -0.47130
C          1.44380       -1.75230       -0.47570
Cl         3.30030        0.17540       -0.12780
H          3.36320       -2.13570        0.36740
C          0.82130       -2.71190        0.49870
C          3.68200       -2.01370       -1.74250
C          3.37900       -1.25940       -3.01560
C          2.23510       -1.39090       -3.69270
O          0.72960       -1.11700       -1.23600
H          4.76450       -1.86470       -1.53540
H          3.52720       -3.10200       -1.90730
H          4.14750       -0.60990       -3.42430
H          1.45160       -2.06050       -3.35900
H          2.08650       -0.83580       -4.61350
F         -0.55420       -2.74530        0.34800
H          1.06210       -2.39620        1.53550
H          1.22730       -3.73040        0.32550
