17
TSA8_9_Cl_CH2F_H
C          1.94010       -0.21710       -0.04570
C          1.49320       -1.44600       -0.40180
Cl         2.38440        1.08670       -1.13930
H          2.00990        0.03740        1.00740
C          1.10220       -2.41930        0.67560
C          4.00220       -3.29730       -3.25260
C          3.52790       -2.29390       -2.50780
C          2.18150       -1.67410       -2.77210
O          1.35360       -1.89080       -1.68530
H          4.97170       -3.72890       -3.02810
H          3.43100       -3.70040       -4.08380
H          4.12520       -1.92250       -1.68020
H          1.70700       -2.15070       -3.65630
H          2.28520       -0.60650       -3.02040
F         -0.22320       -2.78130        0.51440
H          1.23620       -2.00290        1.69750
H          1.73650       -3.32540        0.58630
