23
TSA8_9_CF3_OMe_NO2
C          2.90550       -0.81890       -1.38010
C          2.05170       -1.71400       -0.50670
C          2.55820        0.66630       -1.09330
H          3.95940       -0.97740       -1.05900
O          2.65940       -2.49070        0.42680
C          2.81530       -1.30100       -2.86750
C          1.47160       -1.02690       -3.51150
C          0.65880       -2.00720       -3.91570
O          0.83600       -1.74420       -0.64840
N          3.87140       -0.74350       -3.69530
H          2.98510       -2.40350       -2.83290
H          1.15630        0.00040       -3.66360
H          0.92800       -3.05080       -3.79060
H         -0.29250       -1.76250       -4.37770
F          3.39480        1.52530       -1.77540
F          1.24670        0.95400       -1.42700
F          2.72060        0.91720        0.25850
C          1.99840       -3.40090        1.22270
H          2.72890       -3.88510        1.90320
H          1.52610       -4.18380        0.59150
H          1.22360       -2.88950        1.83260
O          3.89340        0.41730       -3.97250
O          4.77690       -1.54300       -4.22010
