23
TSA8_9_CF3_OMe_NO2
C          2.76630       -0.88820       -1.36090
C          1.49330       -1.55550       -0.75350
C          2.50350        0.64080       -1.45700
H          3.62930       -1.03610       -0.67480
O          1.62860       -1.93950        0.60170
C          3.08180       -1.63960       -2.69180
C          1.85080       -1.66350       -3.61310
C          0.56370       -1.94570       -2.81040
O          0.86950       -2.54530       -1.56700
N          4.27690       -1.22140       -3.40940
H          3.25130       -2.70210       -2.40380
H          1.71760       -0.74900       -4.22940
H         -0.09670       -2.60990       -3.40470
H         -0.02370       -1.01240       -2.64890
F          3.60830        1.33280       -1.90690
F          1.44350        0.92430       -2.29670
F          2.19750        1.12660       -0.19740
C          2.24490       -3.20680        0.69330
H          2.59810       -3.35070        1.73470
H          3.14270       -3.29740        0.04210
H          1.51090       -4.01150        0.47150
O          5.01810       -0.40180       -2.96140
O          4.62590       -1.86610       -4.50130
