24
TSA8_9_OH_CHF2_Et
C          1.66200        0.09000       -0.10210
C          1.41260        1.21840       -0.80570
O          2.07090        0.11230        1.18210
H          1.50710       -0.87950       -0.56940
C          0.90250        1.11340       -2.21680
C          4.18110        4.68740        0.83340
C          3.24650        4.06470        0.10090
C          2.45200        2.92370        0.66110
O          1.57400        2.47970       -0.31120
C          4.99160        5.82710        0.27680
H          4.36340        4.37070        1.85720
H          3.05980        4.38420       -0.92090
H          1.87580        3.27230        1.54470
H          3.17250        2.14070        0.96690
H          2.23110       -0.71110        1.66300
F         -0.32800        1.73710       -2.30760
F          1.79070        1.74160       -3.06870
H          0.78790        0.05770       -2.54470
C          5.84060        5.38840       -0.91580
H          5.66990        6.20580        1.07170
H          4.31240        6.65230       -0.02880
H          6.53380        4.57440       -0.61420
H          6.43810        6.24870       -1.28330
H          5.19980        5.02900       -1.74850
