16
TSA8_9_I_CN_OH
C          1.73330       -0.02300        0.09500
C          1.66770       -0.91920        1.10780
I          1.91570       -0.50320       -1.96970
H          1.57720        1.03550        0.28680
C          1.36960       -0.46210        2.43350
C          1.03530       -5.25640       -0.58710
C          1.29770       -3.94430       -0.67010
C          0.71330       -2.95700        0.28630
O          1.72680       -2.25760        0.92450
O          1.57870       -6.12710       -1.46470
H          0.37470       -5.64140        0.18530
H          1.94590       -3.57380       -1.45510
H          0.08570       -3.46090        1.05420
H          0.04420       -2.28340       -0.27820
N          1.12720       -0.08860        3.51130
H          2.18620       -5.84250       -2.16300
