16
TSA8_9_I_CN_OH
C          2.16380       -2.00690        0.02350
C          1.70330       -1.94660        1.51040
I          3.50690       -0.66040       -0.95250
H          1.40580       -1.46380       -0.55490
C          1.50810       -0.59230        2.03920
C          2.04460       -3.48220       -0.38000
C          0.53670       -3.75020       -0.49320
C         -0.24520       -2.97120        0.60470
O          0.56060       -2.78080        1.77410
O          2.71000       -3.77980       -1.57820
H          2.46660       -4.12830        0.43570
H          0.16700       -3.36470       -1.47860
H         -1.17960       -3.50820        0.83080
H         -0.57120       -1.96780        0.23000
N          1.37670        0.48090        2.45160
H          2.63600       -4.76560       -1.69540
