24
TSA8_9_OMe_CHF2_CH2F
C          0.87390       -0.92550       -1.54770
C          1.56900       -1.56900       -0.36510
O          1.82120       -0.17650       -2.29310
H          0.03270       -0.28260       -1.18860
C          1.11770       -1.27350        1.03770
C          0.24890       -2.00370       -2.46840
C         -0.79300       -2.80430       -1.71550
C         -0.67760       -4.12190       -1.52800
O          2.50970       -2.32620       -0.55440
C         -0.40350       -1.37400       -3.71000
H          1.06220       -2.67500       -2.82730
H         -1.66220       -2.29180       -1.31230
H          0.17550       -4.67280       -1.91220
H         -1.44560       -4.65980       -0.98170
C          1.94590        1.12820       -1.76860
H          2.69100        1.67950       -2.37740
H          2.32600        1.10850       -0.72380
H          0.98810        1.68920       -1.84480
F         -0.19910       -1.66240        1.19730
F          1.90170       -1.94970        1.95610
H          1.20100       -0.18350        1.23090
F         -1.42120       -0.50570       -3.35150
H         -0.82300       -2.17120       -4.36060
H          0.35150       -0.81640       -4.30330
