24
TSA8_9_OMe_CHF2_CH2F
C          1.51210        0.04070        0.08440
C          1.31610       -1.28070        0.18090
O          1.59100        0.61550       -1.13850
H          1.58180        0.65500        0.97950
C          1.20330       -1.95240        1.52960
C         -0.27800       -3.10370       -3.77470
C         -0.26250       -2.29000       -2.71040
C          0.15530       -2.76050       -1.34810
O          1.23970       -2.00300       -0.96470
C         -0.66230       -2.59250       -5.12860
H          0.00330       -4.14770       -3.66910
H         -0.54500       -1.24570       -2.82570
H          0.44130       -3.83460       -1.35950
H         -0.70400       -2.62670       -0.65630
C          1.66660        1.97680       -1.31460
H          1.71390        2.19890       -2.40060
H          2.57730        2.37830       -0.82100
H          0.76170        2.46360       -0.89100
F         -0.02390       -2.57080        1.66910
F          2.20410       -2.89840        1.65130
H          1.31440       -1.21940        2.35740
F         -1.95010       -2.09000       -5.10050
H         -0.60960       -3.41760       -5.86890
H          0.04040       -1.78950       -5.43910
