24
TSA8_9_OMe_CHF2_CH2F
C          0.90760       -1.07850       -1.61490
C          1.47520       -1.99810       -0.49190
O          1.87330       -0.08380       -1.91710
H         -0.08650       -0.66400       -1.30900
C          1.48040       -1.34680        0.89120
C          0.65580       -1.97000       -2.84310
C         -0.35510       -3.08350       -2.48120
C         -0.35130       -3.38920       -0.97320
O          0.95750       -3.33030       -0.45300
C          0.19140       -1.18790       -4.07990
H          1.62300       -2.46200       -3.09220
H         -1.40480       -2.83390       -2.75040
H         -0.78380       -4.39640       -0.80230
H         -1.00530       -2.67470       -0.42360
C          1.39020        1.20530       -1.60670
H          0.64500        1.53400       -2.36250
H          2.24360        1.91350       -1.63290
H          0.97010        1.26020       -0.57740
F          0.18650       -1.12710        1.32730
F          2.12950       -2.17260        1.78930
H          2.02140       -0.37880        0.85300
F         -1.00490       -0.53700       -3.83030
H          0.05300       -1.88310       -4.93570
H          0.95490       -0.43550       -4.36830
