19
TSA8_9_NH2_I_CBr3
C          1.56570       -2.56740        0.48730
C          1.26510       -1.26210        1.19380
N          1.77430       -2.32850       -0.94330
H          2.51870       -2.94470        0.91210
I          2.56340       -0.54340        2.69510
C          0.46310       -3.64190        0.76050
C         -0.88930       -3.19800        0.22930
C         -1.92700       -2.97040        1.04200
O          0.28070       -0.60170        0.90010
C          0.81210       -5.06410        0.22390
H          0.40100       -3.74240        1.86820
H         -1.02880       -3.06040       -0.83830
H         -1.83760       -3.09420        2.11690
H         -2.87980       -2.65450        0.63030
H          2.58690       -1.68240       -1.07210
H          0.93290       -1.88020       -1.37190
Br         2.47800       -5.71980        0.98160
Br        -0.55780       -6.33560        0.76280
Br         0.95090       -5.17160       -1.71570
