19
TSA8_9_NH2_I_CBr3
C          1.61380       -2.74170        0.40160
C          1.18190       -1.43590        1.09590
N          1.88960       -2.47740       -1.01430
H          2.55890       -3.09340        0.86740
I          1.32650       -1.45920        3.24700
C          0.49960       -3.80760        0.60490
C         -0.84550       -3.22610        0.14040
C         -1.09710       -1.89640        0.86420
O         -0.06420       -0.95550        0.61350
C          0.78750       -5.20410       -0.01340
H          0.41030       -3.97690        1.70120
H         -0.86070       -3.06630       -0.95790
H         -1.23260       -2.06090        1.95500
H         -2.05440       -1.47580        0.49340
H          2.69780       -1.81720       -1.08890
H          1.07040       -2.03500       -1.48940
Br         2.42190       -5.95570        0.71980
Br        -0.64430       -6.43390        0.45090
Br         0.93410       -5.21340       -1.95420
