26
TSA8_9_Et_CH2F_CHF2
C          2.49180        1.32640        0.94220
C          1.14530        1.72790        0.22990
C          2.38820       -0.16290        1.37020
H          3.30840        1.37390        0.18690
C          1.39150        2.30890       -1.16210
C          2.75770        2.37930        2.06250
C          1.56120        2.46430        3.03290
C          0.23660        2.21400        2.30230
O          0.34090        2.64660        0.96720
C          4.08270        2.31640        2.83710
H          2.79010        3.34720        1.51160
H          1.61530        1.75260        3.88510
H         -0.57890        2.75720        2.82250
H         -0.05220        1.13850        2.33310
C          3.73270       -0.87190        1.56270
H          1.90980       -0.71930        0.53290
H          1.74360       -0.28720        2.26380
H          4.33190       -0.80950        0.62950
H          3.54790       -1.94460        1.78390
H          4.33450       -0.46960        2.38650
F          0.18240        2.57010       -1.78010
H          1.95480        1.58090       -1.78310
H          1.97370        3.25230       -1.08680
F          4.10180        1.28250        3.75270
F          5.15190        2.20700        1.96640
H          4.19800        3.25620        3.41890
