23
Coordinates from ORCA-job NEB_im1_XTB
  C          -1.00867435873008     -0.68326093209068      1.99072009678886
  C          -0.07119937077882     -0.35228743599696      1.04374333278646
  C          -1.06807395610083     -0.12302580061087      3.39007932121753
  H          -1.37061960258018     -1.70620062123816      1.92188983980302
  C           0.77122498105233     -1.58872645066576      0.84732111745780
  C           0.04189517648784      0.37790300804644     -2.12266614717232
  C           1.16210926226100      0.86849543343600     -1.52096862730957
  C           1.19070613330636      1.32500930434568     -0.08500613836240
  O           0.06540993601219      0.94943119362261      0.68699357401040
  C          -0.02822632728801     -0.18675370041277     -3.50318217708335
  H          -0.82848707312677      0.95513506234617     -1.84190607371837
  H           2.12373591296075      0.81823361065887     -2.01965164530627
  H           1.22692390987607      2.42423952708161     -0.04741949504639
  H           2.12774105286074      0.98895758069032      0.38193402571689
  F          -1.64993468125034     -1.03427768246776      4.25641374035970
  H          -1.85032146230227      0.65479674364247      3.36900895419549
  H          -0.16351569765427      0.44888732222242      3.65971087536223
  F          -2.98213922379005      1.46606908050992     -0.19589702570682
  F           1.47014979775304     -1.83176410916751     -0.21449125356507
  F           0.98006356615986     -2.67092208118483      1.63319451313966
  H          -0.18854079167412     -1.26855198210803     -3.45797119264883
  H           0.90236408684632     -0.00836023144282     -4.04693642621872
  H          -0.85259127030076      0.17697316078366     -4.12491318869993
