23
TSA8_9_CH2F_CF3_Me
C          1.78130       -0.03270       -0.16090
C          1.42790        0.08580       -1.46330
C          1.89230        1.11990        0.79940
H          1.98110       -1.01310        0.25940
C          1.26130       -1.13810       -2.33820
C          2.36050        1.59410       -4.72880
C          2.94840        1.78790       -3.54000
C          2.15550        2.22950       -2.34260
O          1.17650        1.30360       -2.01570
C          3.15570        1.16330       -5.92180
H          1.29080        1.75110       -4.83910
H          4.01930        1.63660       -3.43270
H          1.66750        3.19710       -2.58450
H          2.84430        2.39550       -1.48920
F          3.18690        1.19830        1.27620
H          1.20360        0.94110        1.65100
H          1.60880        2.09170        0.35100
F         -0.02960       -1.16680       -2.83150
F          2.14380       -1.07860       -3.39820
F          1.49280       -2.31550       -1.64660
H          3.63710        0.18270       -5.72250
H          3.93750        1.91870       -6.14860
H          2.48640        1.06340       -6.80190
