27
TSA8_9_Et_Me_OMe
C          1.86710        0.08080        0.19920
C          1.44610        0.19370        1.49330
C          1.97560       -1.12730       -0.70300
H          2.16360        0.99880       -0.30300
C          1.42730        1.56680        2.11210
C          2.89140       -3.45250        3.34010
C          2.46440       -2.66950        2.33040
C          1.04080       -2.17680        2.25690
O          1.00650       -0.79970        2.32650
O          4.17160       -3.90330        3.45060
H          2.19210       -3.74580        4.11700
H          3.15150       -2.36960        1.55240
H          0.47020       -2.56400        3.12780
H          0.49310       -2.54620        1.37110
C          3.40230       -1.27170       -1.22600
H          1.30040       -0.96810       -1.57020
H          1.68870       -2.07620       -0.24460
H          3.70760       -0.35660       -1.77730
H          3.45780       -2.13590       -1.92170
H          4.11230       -1.44150       -0.38970
H          2.08220        1.57080        3.00830
H          0.39090        1.81370        2.42460
H          1.78040        2.36360        1.42300
C          5.20870       -3.61800        2.58580
H          6.12870       -4.12350        2.94420
H          5.39470       -2.52280        2.55890
H          4.97320       -3.99010        1.56610
