27
TSA8_9_Et_Me_OMe
C          2.59000       -0.66200        1.16820
C          1.20950       -0.26100        1.79020
C          2.35310       -0.98750       -0.33010
H          3.29330        0.20020        1.21040
C          1.18720        1.17430        2.30470
C          3.18760       -1.81500        2.01330
C          2.17940       -2.98360        2.09600
C          0.74530       -2.45740        2.28060
O          0.76880       -1.14930        2.81160
O          4.46120       -2.20460        1.52790
H          3.30900       -1.38830        3.03640
H          2.20460       -3.66210        1.21710
H          0.18870       -3.13980        2.95540
H          0.18960       -2.46900        1.31360
C          3.62350       -1.27710       -1.13110
H          1.87650       -0.09630       -0.79610
H          1.65450       -1.84230       -0.44690
H          4.33700       -0.43040       -1.04360
H          3.35730       -1.40560       -2.20160
H          4.10930       -2.21610       -0.80650
H          1.90960        1.29540        3.13960
H          0.16770        1.42300        2.66680
H          1.44970        1.87490        1.48430
C          5.03230       -3.21740        2.32840
H          4.82720       -3.08620        3.41600
H          6.13500       -3.17800        2.21120
H          4.68730       -4.21490        1.98190
