24
TSA8_9_Et_CN_CF3
C          2.30690       -1.05490       -1.55350
C          1.09740       -1.57210       -0.67240
C          2.16750        0.50990       -1.59630
H          3.26130       -1.32430       -1.04590
C          1.49740       -2.29550        0.54070
C          2.17160       -1.81460       -2.93680
C          0.79780       -1.50090       -3.54390
C         -0.30540       -1.61750       -2.49720
O          0.15730       -2.34630       -1.38360
C          3.21550       -1.77730       -4.07490
H          2.17200       -2.89360       -2.65710
H          0.74830       -0.50450       -4.03930
H         -1.15120       -2.15250       -2.98170
H         -0.68030       -0.62000       -2.17600
C          3.41930        1.30020       -1.20680
H          1.41020        0.84640       -0.84840
H          1.79550        0.85320       -2.57760
H          3.66400        1.14120       -0.13220
H          3.20830        2.38790       -1.33300
H          4.28820        1.03000       -1.83530
N          1.83340       -2.83570        1.50630
F          4.44450       -2.24290       -3.64710
F          2.77300       -2.63510       -5.08030
F          3.35610       -0.51530       -4.61900
