21
TSA8_9_CHF2_CF3_CN
C          2.08330        1.35590       -1.41610
C          1.24760        0.30400       -2.18650
C          2.05540        1.24110        0.15190
H          3.13040        1.16610       -1.73970
C          1.59600       -1.15450       -2.29590
C          1.71090        2.79760       -1.92880
C          0.70720        3.51490       -1.05460
C         -0.53670        3.07090       -0.88450
O          0.35510        0.67810       -2.93450
C          2.89590        3.66530       -2.11030
H          1.33560        2.76540       -2.97200
H          1.01500        4.41190       -0.51730
H         -0.88870        2.18740       -1.39660
H         -1.20790        3.60250       -0.22120
F          2.93840        0.28150        0.61100
F          2.41810        2.43900        0.75290
H          1.03320        0.99520        0.51710
F          0.44130       -1.91470       -2.20860
F          2.15750       -1.36680       -3.54490
F          2.48790       -1.55880       -1.32680
N          3.80180        4.34280       -2.33400
