14
TSA8_9_I_F_Br
C          2.22040        1.75360       -0.10710
C          1.25010        2.13940       -1.18950
I          1.27120        0.29660        1.15870
H          3.10550        1.27110       -0.57620
F          1.55610        1.89730       -2.49090
C          2.68200        2.98470        0.69740
C          3.67190        2.58790        1.76240
C          3.44250        2.80910        3.06050
O          0.18580        2.66920       -0.91030
Br         3.55370        4.27870       -0.46430
H          1.79390        3.47570        1.15390
H          4.60080        2.10880        1.46610
H          2.52680        3.28570        3.39680
H          4.17840        2.51030        3.79960
