14
TSA8_9_I_F_Br
C          1.81850        0.09800        0.02850
C          1.48950        1.37630       -0.22440
I          2.07370       -0.79390        1.93510
H          1.92650       -0.58070       -0.81140
F          1.28660        1.74020       -1.51740
C          3.75190        4.65870        1.11150
C          3.41860        3.37730        0.92730
C          2.25870        2.74280        1.64830
O          1.30740        2.32140        0.73700
Br         5.22660        5.41810        0.16060
H          3.19360        5.29030        1.79570
H          3.99450        2.77130        0.23440
H          1.77860        3.47510        2.33290
H          2.63120        1.91190        2.27030
