21
TSA8_9_OH_H_Et
C          3.27720        0.36190        1.51180
C          1.81060        0.49570        1.18600
O          3.91070       -0.38040        0.50240
H          3.70780        1.38960        1.55630
H          1.38080        1.48180        1.04500
C          3.49680       -0.29170        2.90310
C          3.02900       -1.73400        2.92280
C          2.04120       -2.14880        3.72180
O          1.10070       -0.49000        1.06110
C          4.95990       -0.18330        3.40660
H          2.89710        0.30200        3.63170
H          3.50460       -2.45790        2.26790
H          1.53380       -1.46270        4.39280
H          1.73290       -3.18920        3.70620
H          3.99880        0.21990       -0.28380
C          6.01520       -0.92490        2.58000
H          4.99830       -0.58430        4.44350
H          5.24580        0.89020        3.45420
H          5.79650       -2.01120        2.53490
H          7.00750       -0.79500        3.06140
H          6.08940       -0.51320        1.55490
