21
TSA8_9_OH_H_Et
C          3.23920        0.21400        1.68900
C          1.68730        0.32960        1.64160
O          3.66870       -0.85260        0.88300
H          3.69240        1.16160        1.31510
H          1.43410        1.37830        1.90750
C          3.63820       -0.02520        3.15610
C          2.99620       -1.33340        3.66930
C          1.69740       -1.65840        2.90750
O          0.98570       -0.48300        2.58750
C          5.15230        0.08190        3.45900
H          3.16310        0.80060        3.73340
H          3.64550       -2.22750        3.58000
H          1.06870       -2.32560        3.53250
H          1.90720       -2.22710        1.97370
H          3.54090       -0.56570       -0.05880
C          6.05140       -0.92770        2.73900
H          5.29980       -0.03630        4.55480
H          5.49590        1.10190        3.18020
H          5.78740       -1.97100        3.00150
H          7.10450       -0.75630        3.04680
H          6.00100       -0.79510        1.64020
