18
TSA8_9_CN_F_Me
C          2.70340       -1.19310        1.30730
C          1.93780        0.00910        1.86310
C          2.18150       -1.49600       -0.07940
H          3.73430       -0.80270        1.13370
F          1.55540        1.03930        1.07160
C          2.56880       -2.43610        2.29870
C          1.27340       -3.09720        1.92830
C          0.11030       -2.58220        2.28980
O          1.86670        0.17530        3.07620
C          3.59310       -3.59260        2.52150
H          2.55970       -2.01960        3.33050
H          1.29600       -3.87370        1.16080
H          0.07990       -1.74770        2.97720
H         -0.79270       -2.97200        1.84380
N          1.78190       -1.78240       -1.09630
H          4.63330       -3.26190        2.71960
H          3.58020       -4.38780        1.74670
H          3.28580       -4.12100        3.46520
