18
TSA8_9_CN_F_Me
C          2.69870       -1.33170        1.23400
C          1.60990       -0.26700        1.57740
C          2.26540       -1.88760       -0.05950
H          3.68180       -0.82620        1.08400
F          2.16150        0.99150        1.74670
C          2.73180       -2.35700        2.41300
C          1.33990       -2.97070        2.52780
C          0.26470       -1.88330        2.54460
O          0.83150       -0.59850        2.72180
C          3.75070       -3.50510        2.52630
H          2.94220       -1.74070        3.31350
H          1.14990       -3.66260        1.66980
H         -0.39070       -2.12250        3.40480
H         -0.36370       -1.91240        1.62610
N          1.92880       -2.28460       -1.09870
H          4.80300       -3.15780        2.53830
H          3.60780       -4.30970        1.77640
H          3.57630       -3.97440        3.52780
