14
TSA8_9_Br_F_Cl
C          1.84050        0.11940       -0.05730
C          1.44110        1.05280       -0.94100
Br         2.22030        0.40220        1.80080
H          1.91560       -0.90830       -0.39730
F          1.13190        0.64120       -2.19790
C          3.76060        4.54520       -1.49980
C          3.40900        3.36380       -0.97870
C          2.21420        3.21870       -0.07390
O          1.28340        2.37610       -0.65550
Cl         5.15420        4.66840       -2.56080
H          3.19130        5.44350       -1.28250
H          3.99510        2.48050       -1.21500
H          1.72810        4.20550        0.08450
H          2.54120        2.86350        0.91570
