18
TSA8_9_F_CN_CHF2
C          2.96660       -1.45830        0.69670
C          1.57130       -0.98460        1.22070
F          2.97220       -1.29870       -0.67990
H          3.79770       -0.84860        1.11350
C          1.65840        0.19630        2.09220
C          3.15080       -2.94970        1.06560
C          1.93370       -3.72400        0.54510
C          0.62920       -3.07090        1.03320
O          0.88190       -2.00180        1.92340
C          4.44770       -3.62390        0.59600
H          3.15890       -3.00620        2.17710
H          1.93090       -3.74280       -0.56900
H          0.06040       -3.85390        1.57340
H         -0.00790       -2.73460        0.18330
N          1.72410        1.12720        2.77950
F          4.52340       -3.68990       -0.78370
F          5.55520       -2.95990        1.08990
H          4.45700       -4.66210        0.99880
