15
TSA8_9_CN_Br_Br
C          2.41320       -1.41910       -0.63600
C          3.01720       -1.36330        0.73570
C          2.67020       -0.21800       -1.46420
H          1.33960       -1.34460       -0.36750
Br         2.16070       -0.19730        1.99240
C          2.59560       -2.75410       -1.42200
C          1.27080       -3.04250       -2.06770
C          0.27930       -3.49930       -1.28770
O          3.76670       -2.23990        1.14910
Br         4.04410       -2.78400       -2.72570
H          2.81280       -3.60780       -0.74170
H          1.08560       -2.77910       -3.10340
H          0.47650       -3.72410       -0.23860
H         -0.71780       -3.62330       -1.67290
N          2.83840        0.69740       -2.13400
