20
TSA8_9_F_CHF2_CCl3
C          2.91340        2.30350        0.76840
C          1.51040        1.62590        0.64280
F          3.87100        1.31710        0.93720
H          3.16090        2.83900       -0.17260
C          0.61360        2.35340       -0.36360
C          2.90640        3.24400        1.99260
C          2.58050        2.41810        3.26110
C          1.68940        1.20750        2.93400
O          0.80510        1.51890        1.88210
C          4.18190        4.11100        2.16050
H          2.06040        3.94890        1.84140
H          3.47770        2.02610        3.78580
H          1.12250        0.91180        3.84080
H          2.30540        0.32090        2.65520
F         -0.57800        1.66540       -0.50310
F          0.34360        3.64360        0.05540
H          1.11310        2.38960       -1.35470
Cl         4.42790        5.14690        0.72700
Cl         4.00660        5.19550        3.56790
Cl         5.65800        3.13070        2.39710
