16
TSA8_9_OH_CN_H
C          1.54290       -1.35970       -0.44200
C          2.05430       -1.57090        0.95430
O          2.59290       -0.83100       -1.20810
H          0.70130       -0.62470       -0.42540
C          1.50060       -0.84540        2.08050
C          1.04790       -2.67040       -1.09150
C         -0.38130       -2.99330       -0.73610
C         -0.79410       -3.30410        0.49300
O          3.02930       -2.27970        1.15060
H          1.04460       -2.51850       -2.19220
H          1.73480       -3.52130       -0.88050
H         -1.11650       -2.96320       -1.53630
H         -0.10590       -3.35750        1.32700
H         -1.84760       -3.51100        0.66010
H          2.17400       -0.25560       -1.90510
N          1.04660       -0.27090        2.96710
