16
TSA8_9_OH_H_OH
C          1.53900       -0.27560        2.20830
C          1.37140        0.87550        1.25080
O          1.12030       -1.46530        1.58820
H          2.62730       -0.33920        2.45010
H          2.23720        1.46670        0.97120
C          0.83050       -0.12240        3.57870
C         -0.68160       -0.04110        3.51500
C         -1.33730        1.03930        3.08080
O          0.29720        1.11100        0.72280
O          1.18080       -1.24080        4.35440
H          1.22260        0.79500        4.07900
H         -1.26670       -0.87780        3.88630
H         -0.81020        1.92590        2.74720
H         -2.42220        1.05030        3.08130
H          1.89370       -1.81270        1.07070
H          1.04590       -0.98940        5.30620
