16
TSA8_9_OH_H_OH
C          2.02820        0.11040        0.18750
C          1.27740        0.77300        1.06920
O          2.23300       -1.21590        0.31960
H          2.47790        0.64540       -0.64440
H          1.12460        1.84200        0.93900
C         -0.31740       -0.08560        5.34940
C         -0.57700       -0.23190        4.04180
C         -0.10220        0.76150        3.02180
O          0.70960        0.12250        2.11140
O         -0.75270       -0.98970        6.25490
H          0.24970        0.76980        5.70320
H         -1.14600       -1.09120        3.69770
H          0.46050        1.59290        3.50360
H         -0.98760        1.18600        2.50110
H          2.77380       -1.69620       -0.32200
H         -1.26240       -1.77320        6.00250
