16
TSA8_9_OH_H_OH
C          1.41000       -0.53410        2.17110
C          1.16760        0.81680        1.47990
O          0.91240       -1.57270        1.36670
H          2.49870       -0.68940        2.35240
H          1.64110        1.66460        2.02530
C          0.68170       -0.52450        3.52300
C         -0.79420       -0.17060        3.30150
C         -0.87630        1.15100        2.52620
O         -0.21670        1.04650        1.27490
O          0.80280       -1.77620        4.14350
H          1.15360        0.25910        4.16230
H         -1.29690       -0.97090        2.71520
H         -0.46180        1.99360        3.12510
H         -1.94590        1.38460        2.34480
H          1.58200       -1.72300        0.64940
H          0.50720       -1.65620        5.08360
