18
TSA8_9_CN_I_CCl3
C          1.71880       -0.06610       -0.02880
C          1.47340       -0.91120       -1.06010
C          1.82470        1.37540       -0.09060
H          1.82160       -0.49870        0.96050
I          1.36210       -2.96750       -0.60840
C          3.23140        1.29450       -4.42590
C          2.74720        1.02720       -3.20280
C          1.31230        0.63900       -2.99330
O          1.24480       -0.58560       -2.36740
C          4.66430        1.70290       -4.64460
H          2.56740        1.23290       -5.28470
H          3.39450        1.09520       -2.33570
H          0.78520        0.55960       -3.97020
H          0.75790        1.40090       -2.41270
N          1.91400        2.53000       -0.11280
Cl         4.92890        2.05850       -6.36980
Cl         5.03570        3.17230       -3.70510
Cl         5.77870        0.39790       -4.15940
