18
TSA8_9_CN_I_CCl3
C          2.87620        0.19970       -1.64960
C          1.49840       -0.52170       -1.61510
C          2.70500        1.32570       -0.71290
H          3.67790       -0.46700       -1.26120
I          1.61150       -2.55450       -0.95840
C          3.13940        0.62660       -3.12940
C          1.99100        1.55020       -3.55010
C          0.63720        0.91160       -3.22120
O          0.77900       -0.44570       -2.83990
C          4.50170        1.20160       -3.60220
H          3.05660       -0.31430       -3.71840
H          2.06670        2.54510       -3.04970
H          0.04260        0.96670       -4.15470
H          0.08810        1.48560       -2.44150
N          2.56290        2.18270        0.05340
Cl         4.41690        1.44050       -5.38100
Cl         4.93410        2.76630       -2.86750
Cl         5.82600        0.04250       -3.31990
