20
TSA8_9_CF3_Cl_CH2F
C          1.85080       -0.06940        0.08390
C          1.07850        0.49300        1.03200
C          2.32280       -1.50230        0.07650
H          2.16040        0.54500       -0.75680
Cl         0.62260        2.18910        0.83180
C         -0.22840       -0.48550        5.39940
C         -0.44140       -0.78610        4.10870
C         -0.26640        0.23670        3.02350
O          0.65800       -0.22110        2.10820
C         -0.40640       -1.50970        6.47850
H          0.07770        0.51740        5.68420
H         -0.75460       -1.78950        3.83170
H          0.07070        1.20700        3.45070
H         -1.24300        0.38760        2.51520
F          3.70410       -1.52050        0.06170
F          1.88170       -2.22220        1.17280
F          1.85560       -2.11730       -1.07000
F         -1.70860       -1.97530        6.48040
H         -0.18580       -1.05190        7.46570
H          0.29030       -2.35850        6.31350
