20
TSA8_9_CF3_Cl_CH2F
C          1.42200       -0.43990        2.61200
C          0.95450        0.67290        1.65090
C          1.64240       -1.74760        1.80720
H          2.42030       -0.16290        3.01750
Cl         1.21130        2.33630        2.27400
C          0.40810       -0.50890        3.79260
C         -1.02310       -0.64750        3.26010
C         -1.29800        0.47510        2.25180
O         -0.36900        0.46080        1.17790
C          0.71810       -1.59210        4.83250
H          0.46430        0.46630        4.32680
H         -1.18240       -1.63640        2.78500
H         -1.30890        1.46500        2.75780
H         -2.31780        0.32810        1.83960
F          2.56050       -1.50630        0.79970
F          2.16460       -2.74060        2.61410
F          0.47740       -2.20710        1.22260
F         -0.15740       -1.48400        5.89880
H          1.75330       -1.46350        5.21370
H          0.61010       -2.60770        4.40120
