20
TSA8_9_CH2F_CH2F_I
C          2.71260        1.14560        0.49780
C          1.33170        1.76000        0.36950
C          2.56890       -0.38500        0.62290
H          3.24530        1.36430       -0.45430
C          0.97700        2.54710       -0.86070
C          3.57600        1.79090        1.62780
C          3.17310        1.45620        3.04870
C          2.09100        1.95940        3.64830
O          0.48730        1.58560        1.23500
I          5.65220        1.26460        1.38500
H          3.58860        2.89580        1.50340
H          3.81660        0.80640        3.63450
H          1.43140        2.65470        3.14640
H          1.87260        1.69210        4.67740
F          3.79460       -1.02100        0.59570
H          1.96950       -0.77290       -0.22890
H          2.04510       -0.65290        1.56540
F         -0.32830        3.00290       -0.79620
H          1.08940        1.90270       -1.75800
H          1.65850        3.41890       -0.95060
