20
TSA8_9_Br_H_Et
C          2.58710       -0.76230       -1.63660
C          1.89140       -2.08450       -1.46400
Br         1.42890        0.62830       -0.91480
H          3.51510       -0.76700       -1.02720
H          2.34110       -2.85370       -0.84470
C          2.93410       -0.48090       -3.12200
C          3.61430        0.86710       -3.25260
C          3.08520        1.86100       -3.97370
O          0.82310       -2.30440       -2.01360
C          3.81040       -1.58690       -3.76780
H          1.97730       -0.46290       -3.69250
H          4.55790        1.04120       -2.74500
H          2.14280        1.73740       -4.49770
H          3.60020        2.81370       -4.04210
C          5.18430       -1.78880       -3.11890
H          3.96530       -1.33470       -4.83990
H          3.26520       -2.55450       -3.73420
H          5.79640       -0.86630       -3.18190
H          5.72650       -2.59430       -3.65750
H          5.08390       -2.09530       -2.05810
