20
TSA8_9_Br_H_Et
C          1.71940       -0.01790       -0.10550
C          1.41990       -0.62880       -1.26390
Br         1.89370        1.87340        0.14750
H          1.82180       -0.63070        0.78460
H          1.27950       -1.70560       -1.24550
C          3.40430       -1.05660       -4.10620
C          3.43070        0.05990       -3.35530
C          2.16760        0.82600       -3.07440
O          1.24620        0.00010       -2.45750
C          4.60000       -1.92240       -4.42110
H          2.45030       -1.38510       -4.51500
H          4.35240        0.43030       -2.91860
H          1.73900        1.18560       -4.03520
H          2.39530        1.71720       -2.46510
C          5.92440       -1.45280       -3.81720
H          4.71400       -1.97380       -5.52720
H          4.39320       -2.94580       -4.04610
H          6.18620       -0.44430       -4.19880
H          6.73390       -2.15780       -4.10290
H          5.85640       -1.43000       -2.70810
