20
TSA8_9_NO2_CCl3_OH
C          2.56770       -1.70020        0.19880
C          1.38650       -1.31340        1.07410
N          2.62860       -0.82510       -0.96010
H          3.48730       -1.54530        0.80930
C          1.60190       -0.87080        2.50670
C          2.62070       -3.19650       -0.22850
C          1.50130       -3.67190       -1.13400
C          0.24610       -3.86420       -0.71890
O          0.25750       -1.31410        0.60720
O          3.83930       -3.39260       -0.90100
H          2.62150       -3.82080        0.69700
H          1.73720       -3.91570       -2.16640
H         -0.04560       -3.69120        0.30950
H         -0.50190       -4.22750       -1.41620
O          3.56300       -0.09650       -1.11020
O          1.65470       -0.81550       -1.84600
Cl         2.37720       -2.17770        3.43800
Cl         2.64790        0.57260        2.54780
Cl         0.06250       -0.45670        3.31530
H          4.07950       -4.35140       -0.79890
