17
TSA8_9_NO2_F_CN
C          1.56880        0.03140       -0.04290
C          1.40860        0.76340       -1.27970
N          1.67190        0.44890        1.28320
H          1.50720       -1.02760       -0.19060
F          1.80400        0.00660       -2.35700
C          1.19480        5.21580       -0.44340
C          1.35240        3.92570       -0.13440
C          0.41770        2.87620       -0.66830
O          1.11730        2.10300       -1.58470
C          2.21780        6.15440       -0.06660
H          0.34220        5.55620       -1.02640
H          2.22540        3.62340        0.44560
H         -0.40820        3.33520       -1.22370
H         -0.08670        2.28680        0.12840
O          2.31600       -0.30290        1.93090
O          1.33060        1.60800        1.80670
N          3.05500        6.88620        0.25250
