19
TSA8_9_NH2_Me_Cl
C          2.90260       -0.28630        1.13200
C          1.48940        0.08720        1.53770
N          2.95850       -0.58050       -0.30170
H          3.53390        0.61120        1.32120
C          1.20970        1.44880        2.10400
C          3.55230       -1.43460        1.95580
C          2.96850       -2.81660        1.74070
C          1.77710       -3.19850        2.20770
O          0.56230       -0.68770        1.36350
Cl         5.28720       -1.50520        1.51900
H          3.52080       -1.19000        3.04020
H          3.56090       -3.55980        1.21280
H          1.15020       -2.53210        2.78520
H          1.43040       -4.21200        2.03040
H          2.33860       -1.39190       -0.52870
H          2.62410        0.25020       -0.84220
H          1.79090        1.59290        3.03860
H          0.12900        1.56980        2.33010
H          1.50750        2.22390        1.36650
