19
TSA8_9_NH2_Me_Cl
C          1.84110        0.19110        0.15620
C          1.46920        0.17300        1.46920
N          2.24020       -0.91650       -0.63800
H          1.82330        1.14740       -0.35940
C          1.05130        1.47320        2.10350
C          4.16080       -2.73690        3.13440
C          3.41930       -2.17430        2.17330
C          1.91100       -2.19010        2.22090
O          1.41990       -0.90470        2.31120
Cl         5.91400       -2.68310        3.04870
H          3.69700       -3.22990        3.98330
H          3.92130       -1.68610        1.34500
H          1.57420       -2.73570        3.12850
H          1.45670       -2.73630        1.37420
H          2.28330       -1.88340       -0.31630
H          2.48660       -0.74810       -1.62390
H          1.71870        1.68880        2.96340
H          0.00810        1.38180        2.47160
H          1.09850        2.33520        1.40380
