17
TSA8_9_CF3_H_I
C          1.65960        1.03850        1.54150
C          0.97230        1.55040        0.26170
C          1.34160       -0.46570        1.74190
H          2.76110        1.11250        1.40780
H          1.35250        2.54910       -0.05350
C          1.24500        1.98940        2.69550
C         -0.27650        2.12930        2.77210
C         -0.81080        2.51840        1.38580
O         -0.43940        1.56370        0.40480
I          2.06790        1.51650        4.61980
H          1.64720        2.99910        2.45620
H         -0.74520        1.18480        3.11390
H         -0.46180        3.53610        1.09770
H         -1.91840        2.56710        1.43610
F          2.00960       -0.96710        2.84200
F         -0.01180       -0.70050        1.89690
F          1.77450       -1.16910        0.63130
