18
TSA8_9_I_CN_CBr3
C          2.85910       -1.48390        1.08930
C          1.88830       -0.60520        1.87040
I          2.79290       -0.90490       -0.99800
H          3.86030       -1.20320        1.46630
C          2.06820        0.82670        1.90790
C          2.60550       -3.01200        1.35260
C          1.54730       -3.54420        0.40170
C          0.26420       -3.68090        0.73350
O          1.02390       -1.08910        2.58420
C          3.86730       -3.92350        1.35080
H          2.25560       -3.09770        2.40370
H          1.83670       -3.79690       -0.61550
H         -0.09480       -3.40900        1.71790
H         -0.44010       -4.04530       -0.00900
N          2.21720        1.97040        1.94520
Br         3.38390       -5.69050        2.00910
Br         4.69690       -4.14020       -0.39230
Br         5.22690       -3.26560        2.58020
