23
TSA8_9_I_Me_Et
C          2.92660        1.70450       -1.59070
C          1.65810        1.27130       -2.29370
I          2.77050        1.23150        0.49910
H          3.76930        1.08300       -1.95870
C          1.70280        0.20730       -3.34850
C          3.29780        3.20180       -1.79700
C          2.24270        4.12560       -1.21970
C          2.50650        4.95810       -0.20700
O          0.58250        1.76480       -1.98960
C          3.52290        3.58090       -3.27980
H          4.25760        3.37490       -1.25930
H          1.24220        4.12830       -1.63900
H          1.72670        5.60790        0.17650
H          3.49150        4.99940        0.24700
H          2.35010        0.53640       -4.18700
H          0.68430        0.00340       -3.74390
H          2.11080       -0.72960       -2.91500
C          4.69050        2.83630       -3.93060
H          3.76040        4.66670       -3.33230
H          2.59720        3.40350       -3.86980
H          5.62850        3.02610       -3.36720
H          4.82380        3.20080       -4.97090
H          4.50350        1.74550       -3.97620
