23
TSA8_9_NH2_OMe_CH2F
C          3.08100       -0.87800        0.98560
C          1.60060       -0.68270        1.30690
N          3.41200       -0.25640       -0.30100
H          3.69930       -0.38050        1.76020
O          1.16220       -0.07670        2.44280
C          3.48090       -2.37850        1.02340
C          2.71310       -3.21290        0.01920
C          1.89870       -4.20110        0.40360
O          0.76420       -1.09280        0.51690
C          4.98850       -2.55190        0.78750
H          3.26480       -2.74250        2.05360
H          2.82370       -3.01110       -1.04180
H          1.75780       -4.43750        1.45420
H          1.36210       -4.78200       -0.33880
H          2.83190       -0.65850       -1.07170
H          3.22210        0.77090       -0.25110
C          1.95190        0.34030        3.49260
H          1.30460        0.77530        4.28090
H          2.66870        1.11940        3.15810
H          2.49720       -0.52710        3.92370
F          5.34160       -3.88310        0.92160
H          5.56100       -1.96160        1.53480
H          5.27220       -2.20510       -0.22940
