23
TSA8_9_NH2_OMe_CH2F
C          3.13540       -0.95800        0.61320
C          1.65070       -0.88960        1.09160
N          3.20750       -0.88100       -0.84870
H          3.70480       -0.09150        1.01600
O          1.36260        0.23110        1.90870
C          3.75820       -2.26360        1.15290
C          2.91500       -3.48940        0.74690
C          1.41070       -3.15660        0.73800
O          1.12980       -2.10320        1.63310
C          5.23960       -2.43810        0.79700
H          3.69630       -2.19580        2.26230
H          3.17960       -3.91690       -0.24430
H          0.83360       -4.06270        1.01380
H          1.06270       -2.88540       -0.28560
H          2.67690       -1.65670       -1.30310
H          2.79790        0.02720       -1.16750
C          1.86780        0.04290        3.21510
H          1.61450        0.93790        3.81770
H          2.97530       -0.04020        3.22270
H          1.39210       -0.82550        3.72070
F          5.41540       -2.55870       -0.57020
H          5.63750       -3.35050        1.28960
H          5.82050       -1.56390        1.16110
