17
TSA8_9_H_Me_F
C          2.96400        1.31880        1.40100
C          1.47860        1.25370        1.14560
H          3.47940        0.61670        0.71070
H          3.30970        2.34570        1.14980
C          0.72930        2.48810        0.74120
C          3.41440        1.05400        2.85430
C          3.15520       -0.34270        3.36810
C          1.94080       -0.78860        3.70200
O          0.88480        0.18940        1.21520
F          4.78270        1.26250        2.89460
H          2.94910        1.79090        3.54460
H          4.00270       -1.00530        3.52030
H          1.06290       -0.15830        3.62090
H          1.82260       -1.79610        4.08750
H          0.81110        3.25220        1.54240
H         -0.34490        2.25980        0.57260
H          1.15940        2.89520       -0.19790
