17
TSA8_9_H_Me_F
C          2.37310        0.49550        0.38530
C          1.51300        1.12450        1.20890
H          2.87740       -0.41960        0.66880
H          2.58350        0.88800       -0.60580
C          0.83350        2.38580        0.76340
C          3.42050        1.28550        4.29410
C          3.26920        0.18590        3.54850
C          1.90060       -0.30900        3.17050
O          1.21770        0.66160        2.45770
F          4.66330        1.72240        4.62610
H          2.55460        1.84290        4.64090
H          4.14690       -0.35780        3.21170
H          1.33860       -0.53040        4.10180
H          1.96530       -1.25170        2.58610
H          1.10930        3.20900        1.45740
H         -0.26560        2.25190        0.79290
H          1.12700        2.68390       -0.26600
