23
TSA8_9_CF3_Me_CH2F
C          2.06850        0.23740        0.08180
C          1.57950        1.48400       -0.20440
C          2.01460       -0.66720        1.29460
H          2.61730       -0.25120       -0.71950
C          1.83110        2.03060       -1.58680
C          2.71290        3.58500        2.51070
C          1.88190        2.55730        2.73830
C          0.61050        2.40120        1.94750
O          0.87500        2.34190        0.59570
C          3.97970        3.75100        3.29220
H          2.47330        4.31700        1.74360
H          2.12370        1.83030        3.50800
H         -0.01170        3.30280        2.12990
H         -0.01730        1.55150        2.26780
F          3.30800       -0.91260        1.71520
F          1.30010       -0.20350        2.36300
F          1.44700       -1.86690        0.90790
H          2.40490        2.97760       -1.50410
H          0.85900        2.24260       -2.07880
H          2.40410        1.33850       -2.24050
F          3.69060        3.89370        4.63710
H          4.51780        4.65630        2.94080
H          4.63350        2.86560        3.14540
