23
TSA8_9_CF3_Me_CH2F
C          2.62780        1.51840        0.93240
C          1.31220        1.71160        0.10910
C          2.68760        0.06110        1.44720
H          3.51390        1.65990        0.27270
C          1.56280        1.83750       -1.39050
C          2.69520        2.62370        2.02520
C          1.38550        2.70380        2.82940
C          0.16540        2.52220        1.91000
O          0.51840        2.79590        0.56900
C          3.92230        2.56600        2.94190
H          2.76640        3.58270        1.46240
H          1.31690        1.98540        3.67460
H         -0.64920        3.19800        2.24160
H         -0.24870        1.48940        1.99810
F          3.89000       -0.18770        2.08160
F          1.65270       -0.20710        2.32400
F          2.59120       -0.81000        0.37620
H          2.15170        2.75530       -1.60260
H          0.59290        1.89810       -1.92670
H          2.11860        0.95090       -1.76090
F          3.95560        3.68500        3.75550
H          4.84930        2.54810        2.33040
H          3.89410        1.66700        3.59030
