19
TSA8_9_NH2_F_CBr3
C          2.10050        0.88910        2.09870
C          0.87820        1.76690        2.07850
N          1.80700       -0.30540        1.29630
H          2.93030        1.44860        1.61160
F          0.95080        3.01620        1.54810
C          2.54320        0.48620        3.54780
C          3.76890       -0.40550        3.43870
C          3.76900       -1.67480        3.85740
O         -0.18660        1.35870        2.51590
C          2.88230        1.68080        4.50300
H          1.71180       -0.08710        4.01660
H          4.67870       -0.00320        3.00180
H          2.88430       -2.12280        4.29810
H          4.66720       -2.27610        3.75740
H          1.51630       -0.01500        0.33350
H          2.66560       -0.88860        1.17910
Br         3.50610        1.01230        6.22300
Br         4.27360        2.83740        3.78520
Br         1.35460        2.79760        4.95140
