18
TSA8_9_CN_CH2F_I
C          2.41410        1.60150        0.00690
C          1.58970        1.55410       -1.28670
C          2.04200        0.59120        1.04090
H          3.45600        1.35980       -0.30330
C          1.43500        0.34370       -2.15320
C          2.34950        3.04010        0.63710
C          1.16190        3.13610        1.56680
C         -0.09310        3.12360        1.11860
O          1.11020        2.58460       -1.73450
I          4.10570        3.70030        1.67280
H          2.32300        3.83300       -0.13970
H          1.34050        3.11240        2.63840
H         -0.31440        3.12940        0.06210
H         -0.91600        3.09320        1.81810
N          1.73690       -0.11750        1.89090
F          0.09140        0.15460       -2.42970
H          1.86120       -0.57440       -1.70660
H          1.95350        0.55590       -3.11380
