17
TSA8_9_OH_NO2_Cl
C          2.85630        0.96830        0.37520
C          1.57300        1.66460       -0.04970
O          2.55680       -0.37220        0.67930
H          3.55800        1.00540       -0.48910
N          1.45420        2.27410       -1.26520
C          3.60920        1.63630        1.55890
C          2.91270        1.56820        2.90210
C          1.84530        2.30640        3.21810
O          0.60980        1.64360        0.70410
Cl         5.19750        0.82740        1.72990
H          3.83520        2.69770        1.31690
H          3.32200        0.92190        3.67400
H          1.41270        3.01120        2.51910
H          1.40800        2.22380        4.20820
H          3.33280       -0.92360        0.39750
O          0.42560        2.79680       -1.57560
O          2.46270        2.30380       -2.11090
