17
TSA8_9_OH_NO2_Cl
C          2.87380        0.88800        0.46490
C          1.44700        1.46490        0.17560
O          2.78430       -0.27350        1.24940
H          3.40130        0.63140       -0.48290
N          1.43370        2.11930       -1.11990
C          3.66650        1.95670        1.22110
C          2.96470        2.30260        2.54640
C          1.44790        2.05830        2.45640
O          0.96530        2.37910        1.17140
Cl         5.35810        1.46530        1.51100
H          3.68140        2.86970        0.58650
H          3.33610        1.69960        3.40360
H          0.93360        2.67320        3.22350
H          1.19230        1.00070        2.69330
H          2.39840       -0.97830        0.66660
O          1.13800        3.27240       -1.22000
O          1.68490        1.42170       -2.20640
