19
TSA8_9_OH_OH_CH2F
C          1.80730       -0.01090       -0.06520
C          1.50310        0.77150       -1.12150
O          2.09850        0.48490        1.15170
H          1.80000       -1.09070       -0.19550
O          1.19690        0.15840       -2.28450
C          4.26280        4.01460       -0.67700
C          3.54260        2.94890       -0.29470
C          2.04120        3.00890       -0.18270
O          1.46870        2.13700       -1.09190
C          5.75140        3.94010       -0.81710
H          3.76880        4.95700       -0.90330
H          4.04690        2.01160       -0.07730
H          1.68360        4.03200       -0.42760
H          1.70170        2.79990        0.85070
H          2.28550       -0.10820        1.89370
H          0.98060        0.67120       -3.07610
F          6.32930        3.61520        0.39700
H          6.14460        4.92210       -1.15370
H          6.01990        3.17110       -1.57240
