19
TSA8_9_Br_NH2_CH2F
C          3.11670       -1.59830       -0.58420
C          1.55610       -1.57060       -0.49310
Br         3.78420        0.08280       -1.32520
H          3.55230       -1.64670        0.43760
N          1.12940       -2.29270        0.70190
C          3.51900       -2.83470       -1.40740
C          2.90650       -2.75460       -2.81980
C          1.59310       -1.95100       -2.81880
O          0.88290       -2.14940       -1.61800
C          5.02820       -3.11110       -1.44970
H          3.05000       -3.70430       -0.89490
H          3.57650       -2.28210       -3.57070
H          0.97560       -2.26710       -3.68370
H          1.77580       -0.86440       -2.96660
H          0.08500       -2.32500        0.72210
H          1.43970       -1.75550        1.54420
F          5.71430       -2.10210       -2.10080
H          5.21480       -4.06660       -1.98440
H          5.42310       -3.20900       -0.41620
