25
TSA8_9_Et_Me_NH2
C          2.48570        1.34790        0.55840
C          1.27060        1.57220       -0.32300
C          2.46370       -0.14120        1.01170
H          3.38300        1.50450       -0.08150
C          1.44650        1.93290       -1.76820
C          2.51570        2.44620        1.66920
C          1.49840        2.19840        2.76350
C          0.48060        3.03160        2.99460
O          0.14270        1.46080        0.13630
N          3.85450        2.61650        2.24130
H          2.29190        3.40920        1.15130
H          1.60010        1.31380        3.38530
H          0.33810        3.92670        2.39780
H         -0.22440        2.81380        3.79050
C          3.67930       -0.63180        1.79140
H          2.41410       -0.76240        0.08940
H          1.54880       -0.35700        1.60550
H          4.61360       -0.42370        1.22900
H          3.59110       -1.72920        1.93920
H          3.71910       -0.19220        2.80210
H          2.01620        2.88260       -1.84790
H          0.46170        2.06310       -2.26480
H          2.00570        1.12630       -2.28720
H          4.10250        1.85510        2.90270
H          3.87660        3.50710        2.78970
