17
TSA8_9_I_Cl_CCl3
C          1.68990       -1.77880        2.20020
C          1.09660       -1.42370        0.80490
I          3.81130       -2.18090        2.01330
H          1.68270       -0.86370        2.83040
Cl         1.72980       -2.35600       -0.60080
C          0.77200       -2.80630        2.94560
C          0.07850       -3.68980        1.91130
C         -0.82490       -2.77380        1.04590
O         -0.31630       -1.45690        0.81270
C          1.38540       -3.61190        4.12220
H         -0.04640       -2.20190        3.40390
H          0.85310       -4.20500        1.30410
H         -1.76340       -2.64040        1.62340
H         -1.09320       -3.27650        0.09260
Cl         0.08340       -4.48050        4.98350
Cl         2.56170       -4.85370        3.60350
Cl         2.15830       -2.52180        5.30570
