18
TSA8_9_Br_OH_CBr3
C          1.88400       -0.04040        0.05790
C          1.57670       -0.28980        1.34890
Br         2.11260       -1.30630       -1.36420
H          1.97790        0.99580       -0.25330
O          1.40040        0.77910        2.15580
C          4.11480       -3.21490        3.04540
C          3.55480       -2.49450        2.05910
C          2.11880       -2.69010        1.65190
O          1.41280       -1.52710        1.89930
C          5.53770       -2.99370        3.48380
H          3.52340       -3.97180        3.55420
H          4.13660       -1.73310        1.54720
H          1.65500       -3.50010        2.25390
H          2.04560       -3.01340        0.60280
H          1.19740        0.66850        3.09480
Br         5.98200       -4.21500        4.92200
Br         6.76810       -3.30390        2.01730
Br         5.76520       -1.18130        4.13930
