18
TSA8_9_CN_Cl_CBr3
C          2.77890        0.42570        1.50820
C          1.78320        1.51110        1.02570
C          2.25360       -0.86270        0.92960
H          3.71870        0.67270        0.99160
Cl         1.44100        1.74560       -0.69040
C          2.90580        0.40490        3.12110
C          1.81870       -0.53290        3.53610
C          0.56930       -0.13650        3.64950
O          1.23300        2.27830        1.80310
C          4.15850        0.05590        4.03230
H          2.72300        1.45710        3.43400
H          2.03330       -1.59960        3.49900
H          0.32400        0.91230        3.58680
H         -0.19110       -0.89670        3.72460
N          1.79610       -1.81350        0.46920
Br         3.69910        0.52620        5.88210
Br         4.70070       -1.81280        4.13590
Br         5.75100        1.09860        3.67300
