15
TSA8_9_OH_F_H
C          0.32050       -0.47470       -0.40140
C          1.21380       -1.00600        0.69360
O          1.06730       -0.15660       -1.54930
H         -0.19340        0.44060       -0.02640
F          0.67750       -1.34790        1.89410
C         -0.77030       -1.49360       -0.76610
C         -0.18530       -2.76980       -1.31900
C         -0.38820       -3.95340       -0.73330
O          2.41570       -1.13080        0.51640
H         -1.43540       -1.05190       -1.53890
H         -1.39050       -1.69880        0.13500
H          0.41830       -2.72520       -2.22080
H          0.04870       -4.85040       -1.15990
H         -0.98470       -4.03980        0.16960
H          1.50590        0.71700       -1.37390
