24
TSA8_9_CN_Et_CBr3
C          1.66250       -0.04920       -0.04320
C          1.51520       -0.57900       -1.28870
C          1.83010        1.34400        0.30350
H          1.60300       -0.72770        0.81340
C          1.59530       -2.07870       -1.41950
C          3.20270        2.13160       -4.29100
C          2.80610        1.76020       -3.06290
C          1.37460        1.45460       -2.75000
O          1.31030        0.11140       -2.45430
C          4.64980        2.39580       -4.62910
H          2.46360        2.23370       -5.08010
H          3.53330        1.65070       -2.26710
H          0.72950        1.66040       -3.64150
H          0.96860        2.08520       -1.93700
N          1.96560        2.44380        0.62230
C          0.32170       -2.62890       -2.00710
H          1.81010       -2.54100       -0.43220
H          2.44470       -2.37580       -2.08910
H         -0.53250       -2.34100       -1.39460
H          0.35790       -3.72790       -2.00810
H          0.18670       -2.25650       -3.04280
Br         4.77600        3.19580       -6.39070
Br         5.48690        3.60980       -3.36500
Br         5.64040        0.73110       -4.65810
