22
TSA8_9_OH_CCl3_OMe
C          3.08160        0.89840       -1.58260
C          1.67680        0.23750       -1.68220
O          3.07900        1.73170       -0.44960
H          3.90470        0.16250       -1.43960
C          1.53130       -1.06460       -2.50410
C          3.39060        1.75930       -2.82790
C          2.11290        2.45360       -3.35660
C          0.99190        2.45840       -2.31250
O          0.59480        1.14310       -1.93400
O          3.96290        0.94590       -3.83860
H          4.13270        2.51600       -2.47680
H          1.71080        1.90550       -4.23390
H          0.11510        2.96470       -2.76730
H          1.27150        3.05530       -1.41920
H          3.10890        1.13730        0.34760
Cl         2.74830       -2.26860       -2.00610
Cl        -0.06950       -1.77050       -2.16680
Cl         1.64420       -0.82820       -4.26560
C          4.67500        1.73660       -4.76860
H          5.48630        2.31960       -4.27990
H          3.99010        2.39530       -5.34430
H          5.16600        1.05880       -5.49710
