21
TSA8_9_Br_OH_Et
C          3.24200       -0.01710       -1.65470
C          1.75840       -0.27650       -1.58130
Br         3.86960        0.30860        0.16540
H          3.72050       -0.95090       -2.02230
O          1.27340       -1.47870       -1.95850
C          3.56160        1.11980       -2.66920
C          3.07930        2.47100       -2.17870
C          2.13760        3.16570       -2.82470
O          0.99460        0.58850       -1.17720
C          5.04940        1.18860       -3.10560
H          3.01920        0.85560       -3.60680
H          3.50670        2.89570       -1.27600
H          1.67900        2.78530       -3.73200
H          1.81890        4.13020       -2.44280
H          0.32670       -1.67600       -1.92060
C          6.07220        1.54500       -2.02570
H          5.13050        1.95530       -3.90770
H          5.34040        0.21180       -3.55030
H          5.83970        2.52540       -1.56170
H          7.07820        1.61280       -2.49090
H          6.12910        0.75810       -1.25170
