21
TSA8_9_Br_OH_Et
C          3.22060        0.20320       -1.41840
C          1.66440        0.09240       -1.44760
Br         3.72790        1.17550        0.19750
H          3.66060       -0.81280       -1.31830
O          1.26720       -1.19550       -1.83760
C          3.66980        0.87200       -2.73550
C          3.03030        2.26940       -2.86520
C          1.64350        2.31130       -2.19540
O          1.00640        1.05480       -2.27860
C          5.18400        0.84560       -3.06130
H          3.21050        0.25560       -3.54090
H          3.63040        3.09220       -2.42510
H          1.02470        3.08860       -2.68900
H          1.71570        2.62050       -1.12920
H          1.52060       -1.30030       -2.79130
C          6.10760        1.62100       -2.12080
H          5.31810        1.26090       -4.08430
H          5.52470       -0.21260       -3.08130
H          5.83340        2.69380       -2.07450
H          7.14860        1.55080       -2.50120
H          6.10590        1.18240       -1.10610
