20
TSA8_9_NO2_CN_CF3
C          2.78320       -1.67540       -0.41050
C          1.78100       -1.76660        0.72740
N          2.56520       -0.42020       -1.12440
H          3.79600       -1.67080        0.05560
C          2.04750       -1.11520        1.98440
C          2.68460       -2.94230       -1.33370
C          1.54130       -2.80240       -2.31250
C          0.39530       -3.46520       -2.16500
O          0.64050       -2.14530        0.51330
C          3.97860       -3.29900       -2.09880
H          2.50830       -3.81670       -0.66620
H          1.64870       -2.11560       -3.14900
H          0.24380       -4.13200       -1.32300
H         -0.40820       -3.31100       -2.87540
O          3.41850        0.41130       -1.15080
O          1.37080       -0.12570       -1.60200
N          2.25540       -0.59900        2.99890
F          4.42640       -2.23770       -2.86320
F          4.97120       -3.66170       -1.20410
F          3.74250       -4.38250       -2.93210
