20
TSA8_9_NO2_CN_CF3
C          1.72730       -0.02360        0.05880
C          1.47870       -1.20550        0.70460
N          1.76410        0.29460       -1.33800
H          1.92580        0.82490        0.71080
C          1.50710       -1.16500        2.14660
C          2.92330       -4.24890       -2.12040
C          2.42090       -3.05890       -1.75030
C          1.08280       -2.96660       -1.05740
O          1.19910       -2.44410        0.20600
C          4.22970       -4.40560       -2.84650
H          2.36940       -5.15720       -1.90020
H          2.97830       -2.15240       -1.95640
H          0.65670       -3.98540       -0.94810
H          0.31630       -2.41220       -1.62300
O          2.16880        1.37050       -1.65830
O          1.25750       -0.47540       -2.26860
N          1.52700       -1.15020        3.30330
F          4.82290       -3.18490       -3.11960
F          5.09060       -5.16220       -2.07510
F          3.99570       -5.06380       -4.03920
