20
TSA8_9_NO2_CN_CF3
C          2.72360       -1.51670       -0.59980
C          1.41330       -1.59070        0.25010
N          2.54520       -0.36870       -1.50300
H          3.62560       -1.34090        0.02520
C          1.67040       -1.36800        1.69620
C          2.86410       -2.90400       -1.34350
C          1.60290       -3.11080       -2.16250
C          0.37600       -3.02370       -1.24990
O          0.70400       -2.78710        0.11830
C          4.11910       -3.31240       -2.15720
H          2.83500       -3.68660       -0.55160
H          1.55730       -2.42010       -3.02950
H         -0.06810       -4.04340       -1.29780
H         -0.38250       -2.30940       -1.62490
O          3.29720        0.55590       -1.44810
O          1.41290       -0.21370       -2.17000
N          1.84700       -1.19140        2.84130
F          4.66120       -2.26710       -2.87330
F          5.08160       -3.83470       -1.30750
F          3.78160       -4.32820       -3.04440
