22
TSA8_9_CCl3_CH2F_NH2
C          1.47680       -1.47960        1.32120
C          2.77880       -1.17390        2.07740
C          1.61660       -1.62420       -0.24330
H          0.85650       -0.56780        1.46230
C          4.16970       -1.29350        1.50410
C          0.74310       -2.65160        2.07210
C         -0.72880       -2.78540        1.73560
C         -1.59810       -1.79830        1.98000
O          2.68150       -0.81450        3.24300
N          1.43420       -3.92950        1.88060
H          0.76340       -2.42390        3.16260
H         -1.10160       -3.71050        1.30520
H         -1.27540       -0.86290        2.42640
H         -2.64790       -1.92690        1.74010
Cl         2.69860       -2.93730       -0.79370
Cl         0.04310       -1.88670       -1.04310
Cl         2.22510       -0.09650       -0.94250
F          5.11580       -0.92890        2.44750
H          4.30050       -0.63490        0.62650
H          4.36850       -2.34500        1.21910
H          1.24020       -4.30580        0.92510
H          1.05760       -4.62730        2.56350
