17
TSA8_9_CHF2_H_I
C          1.82550        0.00910        0.06270
C          1.18020        0.22870        1.21890
C          1.99710       -1.33680       -0.59660
H          2.25740        0.86520       -0.44750
H          1.11690        1.24870        1.59090
C         -0.25600       -2.30250        4.83480
C         -0.59260       -1.86680        3.61630
C         -0.10150       -0.55460        3.07960
O          0.61040       -0.77750        1.92270
I         -0.97210       -4.15610        5.54510
H          0.38860       -1.71540        5.48180
H         -1.24000       -2.47520        2.99170
H          0.54570       -0.03600        3.82250
H         -0.97940        0.09090        2.85980
F          3.34550       -1.60500       -0.73420
F          1.40670       -2.36660        0.11410
H          1.53550       -1.29860       -1.60520
