24
TSA8_9_CCl3_CH2F_OMe
C          1.49200       -1.30220        1.25040
C          2.82240       -1.02900        1.95690
C          1.57900       -1.08690       -0.30270
H          0.80150       -0.51420        1.62510
C          4.06140       -1.86830        1.76490
C          0.90650       -2.67880        1.71920
C         -0.55360       -2.85290        1.34850
C         -1.50540       -2.04320        1.82560
O          2.88000       -0.08450        2.73060
O          1.68710       -3.73590        1.18270
H          0.96390       -2.67770        2.83430
H         -0.84760       -3.66530        0.69110
H         -1.26440       -1.22560        2.49820
H         -2.54220       -2.20130        1.54780
Cl         2.56710       -2.29960       -1.16580
Cl        -0.03150       -1.09050       -1.07460
Cl         2.27590        0.52120       -0.65280
F          5.09660       -1.39090        2.55050
H          4.39560       -1.83430        0.71180
H          3.86600       -2.91820        2.05910
C          1.45400       -4.95460        1.86220
H          1.37940       -4.83630        2.96600
H          2.32130       -5.62190        1.68370
H          0.55160       -5.45820        1.45560
