24
TSA8_9_CCl3_CH2F_OMe
C          1.24300       -1.74260        0.73590
C          1.73330       -0.69630        1.82200
C          2.14240       -1.86240       -0.53820
H          0.26930       -1.36050        0.35640
C          3.22850       -0.74480        2.15650
C          0.95970       -3.08000        1.46660
C         -0.08190       -2.85170        2.58550
C         -0.22540       -1.37180        2.96510
O          1.03550       -0.75610        3.07040
O          0.47660       -4.06790        0.57480
H          1.92940       -3.37650        1.93300
H         -1.09520       -3.20750        2.29220
H         -0.75590       -1.30330        3.93740
H         -0.85440       -0.81810        2.23220
Cl         3.68380       -2.72450       -0.25200
Cl         1.29530       -2.74890       -1.83770
Cl         2.49050       -0.24270       -1.20670
F          3.52290        0.23200        3.09130
H          3.84320       -0.53080        1.26260
H          3.50550       -1.73220        2.57930
C          0.83740       -5.35760        1.02150
H          0.59750       -5.51110        2.09820
H          1.91260       -5.55140        0.81820
H          0.24150       -6.10290        0.45690
