24
TSA8_9_CF3_Me_OMe
C          2.57510        1.66740        0.49090
C          1.51730        1.40990       -0.56940
C          2.64900        0.40420        1.40060
H          3.54560        1.77060       -0.04450
C          1.90750        1.32760       -2.01580
C          2.28370        3.05270        1.18010
C          1.17150        3.02190        2.21370
C          0.01300        3.66590        2.03850
O          0.34270        1.27320       -0.25480
O          3.42770        3.76670        1.63910
H          1.94300        3.70330        0.34240
H          1.30830        2.46180        3.13240
H         -0.18240        4.24250        1.14000
H         -0.75370        3.61620        2.80410
F          3.64980        0.47130        2.34240
F          1.44680        0.18810        2.05270
F          2.91010       -0.70260        0.61160
H          2.37960        2.28120       -2.32900
H          1.01880        1.13940       -2.65560
H          2.63210        0.49790       -2.15790
C          4.17270        3.12700        2.64450
H          4.75950        3.90270        3.17680
H          4.91100        2.43620        2.18740
H          3.54330        2.64900        3.42190
