24
TSA8_9_CF3_Me_OMe
C          2.00140        0.15490        0.02240
C          1.60960        1.29030       -0.63680
C          1.85500       -0.35200        1.44240
H          2.52980       -0.58110       -0.57830
C          1.93840        1.39260       -2.10530
C          2.24410        4.51520        2.14010
C          1.97180        3.24310        1.78700
C          0.67950        2.87820        1.10110
O          0.93910        2.38340       -0.15810
O          3.40750        4.89780        2.73340
H          1.51120        5.28940        1.94210
H          2.69260        2.45520        1.97560
H          0.05640        3.78870        0.97130
H          0.03860        2.19550        1.68030
F          3.11690       -0.58520        1.95480
F          1.19120        0.46470        2.31440
F          1.17490       -1.55600        1.39860
H          2.57170        2.28910       -2.27120
H          0.99850        1.50500       -2.68390
H          2.48480        0.50960       -2.49970
C          4.48350        4.07870        3.01580
H          5.28430        4.68290        3.48670
H          4.88030        3.63540        2.07650
H          4.18080        3.27480        3.71980
