17
TSA8_9_Cl_CBr3_Cl
C          2.99150       -1.17700        0.71570
C          1.53990       -1.22990        1.14830
Cl         3.17210        0.05870       -0.56770
H          3.58880       -0.83290        1.58720
C          1.14760       -0.92660        2.57910
C          3.60910       -2.53650        0.28600
C          3.04050       -3.14890       -0.97650
C          1.83520       -3.72290       -1.03470
O          0.67220       -1.47420        0.32440
Cl         5.36710       -2.29950        0.04080
H          3.51860       -3.27250        1.11430
H          3.65260       -3.17110       -1.87400
H          1.19200       -3.78410       -0.16490
H          1.49240       -4.16480       -1.96460
Br         1.69000        0.87390        3.05590
Br        -0.77380       -1.05530        2.85410
Br         2.00070       -2.18280        3.78460
