17
TSA8_9_Cl_CBr3_Cl
C          1.96750       -0.12070        0.21370
C          1.55140       -1.10720        1.05500
Cl         2.47820       -0.29330       -1.46250
H          1.99200        0.90780        0.54300
C          1.10120       -0.79460        2.47540
C          4.24240       -4.28980       -0.01560
C          3.55520       -3.15500       -0.18540
C          2.05280       -3.14590       -0.31570
O          1.48590       -2.43500        0.72470
Cl         5.99110       -4.25200        0.14110
H          3.73670       -5.24940        0.03190
H          4.09610       -2.21560       -0.22370
H          1.66500       -4.18570       -0.25940
H          1.72470       -2.75350       -1.29590
Br         1.15360        1.07380        3.03460
Br        -0.72490       -1.40220        2.70250
Br         2.22450       -1.78430        3.70690
