18
TSA8_9_OH_I_CCl3
C          1.70500        0.05550       -0.16770
C          1.35130        0.83850       -1.20640
O          2.09470        0.55440        1.02120
H          1.66370       -1.02330       -0.28720
I          0.72570       -0.10980       -2.98660
C          4.18460        4.02480       -0.69800
C          3.41860        2.97920       -0.34510
C          1.91450        3.07580       -0.29400
O          1.34770        2.20360       -1.20570
C          5.68660        3.92230       -0.76540
H          3.71350        4.97160       -0.94880
H          3.89070        2.03340       -0.09810
H          1.59150        4.10350       -0.56470
H          1.53340        2.88320        0.72960
H          2.33170       -0.03540        1.75010
Cl         6.37950        5.48430       -1.27040
Cl         6.35670        3.49830        0.83160
Cl         6.17010        2.68340       -1.95430
