20
TSA8_9_F_CHF2_CBr3
C          2.83330       -2.94350       -0.97810
C          1.50600       -2.16930       -0.85490
F          3.85460       -2.19280       -0.41860
H          2.75530       -3.90700       -0.43300
C          1.09390       -1.94030        0.59840
C          3.08620       -3.21030       -2.48250
C          3.01480       -1.87520       -3.24630
C          1.69090       -1.17410       -2.91290
O          1.60650       -0.92750       -1.52410
C          4.39280       -3.99100       -2.78990
H          2.24450       -3.84200       -2.84720
H          3.85600       -1.21070       -2.95270
H          0.81670       -1.76630       -3.26990
H          1.66090       -0.20270       -3.44890
F         -0.11340       -1.26720        0.63350
F          0.94590       -3.15300        1.24690
H          1.85960       -1.33350        1.12710
Br         4.51040       -4.35320       -4.69550
Br         6.01300       -3.04180       -2.27700
Br         4.39990       -5.71600       -1.89580
