17
TSA8_9_I_F_Me
C          1.84340       -0.02340       -0.13860
C          1.40030       -1.16900       -0.69150
I          2.49560        1.73240       -1.14260
H          1.83270        0.05790        0.94370
F          0.94520       -2.13860        0.14510
C          2.44160       -2.36720       -5.08970
C          2.63900       -2.27550       -3.76630
C          2.25900       -1.04980       -2.98870
O          1.33610       -1.41300       -2.02780
C          2.81330       -3.60020       -5.85840
H          1.99940       -1.53860       -5.63560
H          3.08320       -3.10550       -3.22360
H          1.81100       -0.27840       -3.65090
H          3.18740       -0.65100       -2.53090
H          1.90640       -4.01130       -6.34870
H          3.24710       -4.38390       -5.20120
H          3.55860       -3.33670       -6.63760
