19
TSA8_9_H_NO2_CF3
C          3.14060       -1.17520       -0.43450
C          1.66080       -1.31760       -0.13700
H          3.31150       -0.22680       -0.99240
H          3.68200       -1.09970        0.53290
N          1.17490       -2.33040        0.63260
C          3.69790       -2.34820       -1.27430
C          2.99070       -2.41060       -2.61160
C          2.28360       -3.47920       -2.99100
O          0.89030       -0.48440       -0.59290
C          5.21290       -2.19340       -1.49660
H          3.54700       -3.29880       -0.71880
H          3.05730       -1.56030       -3.28480
H          2.18970       -4.34920       -2.34870
H          1.79000       -3.48620       -3.95750
O          1.90940       -3.13630        1.11880
O         -0.11710       -2.41450        0.87110
F          5.49290       -1.02220       -2.18050
F          5.87020       -2.16940       -0.27890
F          5.69120       -3.26540       -2.23010
