20
TSA8_9_Br_Et_Br
C          1.95620       -0.28710        1.99150
C          0.72410        0.51600        2.34530
Br         1.62790       -1.14900        0.27560
H          2.82390        0.39350        1.85670
C          0.75420        2.02500        2.40290
C          2.29010       -1.34670        3.06450
C          3.53180       -2.11150        2.68300
C          3.51830       -3.43250        2.48110
O         -0.33540       -0.06330        2.53510
Br         2.61410       -0.54110        4.80270
H          1.42390       -2.03710        3.17040
H          4.46730       -1.57110        2.56800
H          2.60380       -4.00870        2.58360
H          4.43310       -3.94760        2.20620
C          1.68560        2.55740        3.48760
H         -0.26910        2.40940        2.60810
H          1.07850        2.41480        1.41440
H          1.35320        2.20330        4.48590
H          1.65960        3.66760        3.48160
H          2.73200        2.23490        3.30860
