20
TSA8_9_Br_Et_Br
C          3.08130        0.04700        2.14170
C          1.53310       -0.01340        1.93940
Br         3.95690       -0.73980        0.58820
H          3.43690        1.09880        2.18410
C          0.83130        1.33650        2.15810
C          3.44500       -0.69650        3.43550
C          2.92310       -2.14180        3.40140
C          1.60510       -2.23260        2.61340
O          0.88910       -1.02150        2.71990
Br         5.34300       -0.64370        3.84320
H          2.92250       -0.17900        4.26780
H          3.63860       -2.85990        2.94570
H          0.99930       -3.07760        3.00020
H          1.79650       -2.46480        1.53980
C          0.92500        1.84220        3.59830
H         -0.24110        1.21860        1.89240
H          1.27060        2.09370        1.47380
H          0.47260        1.10890        4.29860
H          0.37520        2.80270        3.68770
H          1.98110        2.02220        3.88660
