18
TSA8_9_Br_OMe_H
C          3.28540       -0.54900        0.95430
C          2.26960       -0.08550        1.96530
Br         2.45330       -0.68880       -0.79800
H          4.06000        0.24550        0.88100
O          2.48200        1.08550        2.61900
C          4.04000       -1.84930        1.31450
C          3.21820       -3.11630        1.33870
C          2.34250       -3.40780        2.30400
O          1.24390       -0.72400        2.15340
H          4.80700       -1.98440        0.52100
H          4.58180       -1.73610        2.27850
H          3.37870       -3.84770        0.55140
H          2.17420       -2.73940        3.13920
H          1.79790       -4.34630        2.27190
C          1.61410        1.61690        3.54900
H          2.02480        2.57760        3.92200
H          1.49870        0.91970        4.40620
H          0.62380        1.80820        3.08340
