17
TSA8_9_Cl_Cl_Me
C          1.79410       -0.12190       -0.13340
C          1.45640       -0.34280       -1.41040
Cl         2.01510        1.50550        0.49960
H          1.92370       -0.95740        0.54700
Cl         1.21440       -1.99110       -1.97110
C          2.20150       -0.14080       -4.97440
C          2.92770        0.35470       -3.96100
C          2.31740        1.29060       -2.95340
O          1.27560        0.68590       -2.27360
C          2.79070       -1.06400       -5.99820
H          1.15360        0.12980       -5.07100
H          3.97750        0.09430       -3.86080
H          1.92850        2.18240       -3.48840
H          3.09250        1.63070       -2.23380
H          2.23400       -2.02420       -5.99010
H          3.86420       -1.27190       -5.79980
H          2.69800       -0.60130       -7.00310
