17
TSA8_9_Cl_Cl_Me
C          2.20640       -0.79090       -2.40670
C          1.08660        0.05480       -1.72900
Cl         3.78050       -0.49930       -1.59770
H          1.99590       -1.87340       -2.26360
Cl        -0.44360       -0.86330       -1.75070
C          2.24690       -0.42780       -3.89980
C          2.53300        1.07800       -4.06990
C          1.99730        1.89070       -2.87730
O          0.82100        1.31020       -2.36070
C          3.22870       -1.28090       -4.70860
H          1.22690       -0.62110       -4.30070
H          3.61510        1.31540       -4.16540
H          1.79820        2.93110       -3.20730
H          2.75490        1.97400       -2.06660
H          2.97000       -2.35650       -4.60670
H          4.27120       -1.12850       -4.35790
H          3.17200       -1.00660       -5.78350
