18
TSA8_9_Br_CH2F_OH
C          1.90670        1.74390       -1.24030
C          0.75060        1.28640       -2.09680
Br         1.37990        1.48460        0.61610
H          2.78420        1.08820       -1.43460
C          0.91700        0.12750       -3.03700
C          2.29870        3.20150       -1.59750
C          3.52680        3.69830       -0.85980
C          3.55500        3.95510        0.45190
O         -0.32580        1.86270       -2.02470
O          2.57520        3.24570       -2.97580
H          1.43630        3.87410       -1.37610
H          4.43050        3.89260       -1.43140
H          2.68420        3.82720        1.08070
H          4.46690        4.32560        0.90850
F         -0.25980       -0.12360       -3.72080
H          1.19970       -0.77870       -2.46160
H          1.71760        0.35780       -3.77040
H          2.45520        4.18780       -3.26640
