18
TSA8_9_Br_CH2F_OH
C          1.89160        0.08290       -0.18540
C          1.48010        1.05280       -1.02150
Br         2.16000        0.38240        1.68900
H          2.06790       -0.92300       -0.55360
C          1.24410        0.75640       -2.47740
C          2.19380        4.24830       -2.59500
C          2.90050        3.66350       -1.61620
C          2.24420        3.23940       -0.33100
O          1.24600        2.30990       -0.56470
O          2.77940        4.63150       -3.75070
H          1.12930        4.42030       -2.46800
H          3.96580        3.49370       -1.74240
H          1.79640        4.13420        0.14990
H          3.00640        2.82180        0.36000
F         -0.07030        1.03680       -2.79850
H          1.45300       -0.30680       -2.72380
H          1.91050        1.38960       -3.09780
H          3.72360        4.50230       -3.92180
