22
TSA8_9_OMe_CF3_OH
C          1.51080        0.01690        0.10090
C          1.26870       -0.89540       -0.85110
O          1.57770        1.32610       -0.23670
H          1.62790       -0.27720        1.14080
C          1.16780       -2.37860       -0.53040
C         -0.40090        0.81750       -4.84930
C         -0.42930        0.49740       -3.54800
C          0.15710       -0.78200       -3.02680
O          1.14300       -0.44170       -2.12670
O         -0.91030        1.98910       -5.29110
H          0.03930        0.13700       -5.57100
H         -0.87300        1.18640       -2.83370
H          0.59810       -1.38790       -3.84710
H         -0.65810       -1.36030       -2.54800
C          1.68750        2.32900        0.69610
H          1.71960        3.30660        0.17240
H          2.61770        2.20300        1.28910
H          0.80380        2.31540        1.37000
F         -0.07840       -2.87140       -0.86090
F          2.12640       -3.05740       -1.25940
F          1.38370       -2.62730        0.81450
H         -1.29240        2.64770       -4.69260
