21
TSA8_9_NO2_NH2_CHF2
C          1.96170       -0.07000       -0.03230
C          1.53310       -1.32120       -0.38580
N          1.93440        1.15160       -0.77390
H          2.37540        0.01970        0.97040
N          1.62700       -2.33050        0.61040
C          3.17240       -1.84260       -4.24670
C          2.60800       -1.12410       -3.26430
C          1.15710       -1.29000       -2.89120
O          1.04220       -1.74820       -1.59260
C          4.62180       -1.68300       -4.59570
H          2.58190       -2.56220       -4.80720
H          3.21020       -0.40780       -2.71320
H          0.67930       -2.04810       -3.54780
H          0.56240       -0.38520       -3.07130
O          2.45810        2.11250       -0.29930
O          1.16220        1.31930       -1.81610
H          1.33000       -3.29340        0.39400
H          1.99230       -2.13430        1.55430
F          4.87780       -0.37930       -4.97900
F          5.40720       -2.00560       -3.50350
H          4.87860       -2.36310       -5.43480
