18
TSA8_9_Cl_OH_CCl3
C          2.11220       -1.06360        1.93440
C          0.90780       -0.48510        2.63390
Cl         1.70190       -1.17500        0.19280
H          2.96600       -0.35820        2.02260
O          0.98520        0.69760        3.28150
C          2.54400       -2.45640        2.49090
C          3.68740       -2.97810        1.63680
C          3.58350       -4.10340        0.92200
O         -0.15630       -1.08450        2.61270
C          2.99090       -2.45070        3.98970
H          1.67700       -3.14950        2.40010
H          4.62010       -2.42220        1.60040
H          2.67060       -4.69090        0.92670
H          4.42150       -4.44400        0.32280
H          1.80770        1.20450        3.32380
Cl         1.66790       -2.02830        5.11180
Cl         3.52710       -4.08520        4.47930
Cl         4.34610       -1.32070        4.28250
