18
TSA8_9_Cl_OH_CCl3
C          1.80890       -0.01620        0.16460
C          1.54810       -0.71660        1.28070
Cl         1.85860       -0.77540       -1.42220
H          1.98420        1.05370        0.22160
O          1.49590       -0.09760        2.48190
C          2.57850       -3.17700        3.66090
C          3.14500       -2.93850        2.46710
C          2.33940       -2.98630        1.19780
O          1.32060       -2.05220        1.22430
C          3.36860       -3.12320        4.94220
H          1.51820       -3.41330        3.70440
H          4.20410       -2.70410        2.40300
H          1.89900       -3.99960        1.08630
H          3.00310       -2.79950        0.32660
H          1.65110        0.85260        2.58600
Cl         2.30890       -3.50000        6.32410
Cl         4.69570       -4.31400        4.90910
Cl         4.04680       -1.49140        5.18200
