29
TSA8_9_Et_CH2F_Et
C          1.79680       -0.13560       -0.16960
C          1.37640       -0.41040       -1.42540
C          1.89480        1.24920        0.42010
H          2.06050       -0.95750        0.49120
C          1.23720       -1.84240       -1.87150
C          3.63780        1.34210       -4.71940
C          2.72330        0.69230       -3.98410
C          1.93430        1.41770       -2.92890
O          1.03250        0.57350       -2.30060
C          4.43360        0.65570       -5.79740
H          3.80870        2.40200       -4.54880
H          2.54410       -0.36180       -4.16140
H          1.36310        2.23070       -3.42490
H          2.63040        1.87550       -2.19740
C          3.33140        1.55740        0.82480
H          1.24520        1.29290        1.31990
H          1.53390        2.03130       -0.27660
H          3.69070        0.81520        1.56950
H          3.38110        2.56930        1.27930
H          3.99600        1.53230       -0.06490
F         -0.07540       -2.08500       -2.23150
H          1.52140       -2.55840       -1.07080
H          1.89180       -2.03420       -2.74370
C          5.31720       -0.45720       -5.23700
H          5.08660        1.40690       -6.29140
H          3.74150        0.23730       -6.55970
H          6.02610       -0.04340       -4.48850
H          5.89980       -0.91680       -6.06320
H          4.70250       -1.24860       -4.75990
