26
TSA8_9_CF3_Me_Et
C          2.80450        0.90130       -1.25150
C          1.52710        0.14660       -1.58060
C          2.83000        1.14290        0.28790
H          3.65110        0.22910       -1.51580
C          1.59670       -1.24420       -2.13770
C          2.91150        2.16110       -2.18430
C          2.09290        3.33460       -1.68600
C          1.03760        3.80450       -2.35870
O          0.43550        0.66800       -1.40190
C          4.35020        2.60740       -2.56510
H          2.50910        1.84030       -3.17490
H          2.37120        3.81910       -0.75540
H          0.72090        3.35680       -3.29530
H          0.48020        4.64990       -1.96840
F          3.95940        1.80260        0.70970
F          1.72790        1.87260        0.69960
F          2.79500       -0.08020        0.93540
H          2.15870       -1.23360       -3.09500
H          0.57810       -1.64570       -2.32430
H          2.11680       -1.90810       -1.41580
C          5.27690        3.07110       -1.44680
H          4.25460        3.44730       -3.28880
H          4.85900        1.77400       -3.09770
H          4.81680        3.88920       -0.85570
H          6.21920        3.45030       -1.89600
H          5.56690        2.21890       -0.80630
