23
TSA8_9_Et_F_CF3
C          1.74100       -0.24200        0.06260
C          1.28030       -1.51620       -0.01690
C          1.99180        0.78830       -1.01300
H          1.95050        0.11600        1.06770
F          1.13950       -2.16850        1.16730
C          2.98990       -3.01280       -3.70690
C          2.52920       -2.07740       -2.85830
C          1.07110       -2.00420       -2.47850
O          0.91310       -2.22620       -1.12610
C          4.43930       -3.12760       -4.09750
H          2.30120       -3.73320       -4.13950
H          3.21460       -1.36240       -2.42320
H          0.51120       -2.80340       -3.00940
H          0.58590       -1.06040       -2.78860
C          3.43880        1.27010       -0.95700
H          1.32630        1.65590       -0.81720
H          1.78770        0.45000       -2.03240
H          3.66570        1.69860        0.04300
H          3.59800        2.05930       -1.72190
H          4.13850        0.43220       -1.15740
F          5.22140       -2.16340       -3.48440
F          4.90520       -4.37680       -3.73330
F          4.55040       -2.98790       -5.46770
