23
TSA8_9_Et_F_CF3
C          2.43260       -1.39130       -1.07170
C          0.99940       -1.82470       -0.60660
C          2.46060        0.15150       -1.26410
H          3.11610       -1.60460       -0.21920
F          1.11830       -2.71520        0.44660
C          2.79900       -2.28530       -2.29370
C          1.75630       -2.11590       -3.41840
C          0.36090       -1.82150       -2.85020
O          0.19760       -2.45600       -1.60530
C          4.23080       -2.22540       -2.85350
H          2.68550       -3.32250       -1.90240
H          1.99850       -1.30550       -4.13970
H         -0.40560       -2.18080       -3.56730
H          0.17400       -0.73090       -2.74080
C          3.85110        0.78720       -1.17420
H          1.90310        0.60050       -0.41140
H          1.95360        0.46580       -2.19680
H          4.32690        0.53030       -0.20420
H          3.74760        1.89180       -1.22720
H          4.52790        0.48900       -1.98380
F          4.45080       -1.06920       -3.57500
F          5.15040       -2.32110       -1.82510
F          4.42260       -3.29230       -3.71410
