23
TSA8_9_Et_CHF2_F
C          2.51950       -0.94800       -1.20500
C          1.26360       -1.78620       -1.06050
C          2.18540        0.53090       -0.89990
H          3.24150       -1.27250       -0.42170
C          1.17640       -2.84310        0.00440
C          3.21100       -1.22340       -2.57380
C          2.37590       -0.93870       -3.80380
C          2.02070        0.28860       -4.19520
O          0.31080       -1.59570       -1.80350
F          3.55370       -2.56570       -2.60430
H          4.16120       -0.65520       -2.64860
H          2.07030       -1.77810       -4.42240
H          1.43090        0.41510       -5.09720
H          2.31900        1.17390       -3.64950
C          3.42050        1.43350       -0.87420
H          1.72290        0.58010        0.11100
H          1.43790        0.92930       -1.61430
H          4.14960        1.06440       -0.12190
H          3.11730        2.46460       -0.59550
H          3.91200        1.47790       -1.86640
F         -0.05660       -3.47140       -0.02870
F          2.16760       -3.78650       -0.19260
H          1.31210       -2.37360        1.00090
