23
TSA8_9_Et_CHF2_F
C          2.56160       -0.58090       -1.06380
C          1.15990       -1.23610       -1.11290
C          2.38960        0.95680       -0.91650
H          3.08600       -0.88690       -0.13080
C          1.10580       -2.71040       -0.68840
C          3.39900       -1.02540       -2.29190
C          2.53610       -1.34090       -3.52530
C          1.17010       -0.65720       -3.46000
O          0.40460       -0.99450       -2.30340
F          4.10900       -2.17290       -1.97770
H          4.15310       -0.25870       -2.54610
H          2.33450       -2.43000       -3.58290
H          0.60000       -0.98490       -4.35440
H          1.27330        0.43900       -3.55620
C          3.70270        1.69130       -0.62770
H          1.72640        1.14270       -0.04260
H          1.91100        1.42400       -1.79360
H          4.18100        1.28080        0.28690
H          3.49000        2.76800       -0.45790
H          4.41350        1.62160       -1.47380
F         -0.21440       -3.10470       -0.57600
F          1.74390       -3.54000       -1.58730
H          1.58800       -2.82410        0.30490
