20
TSA8_9_Cl_CCl3_CBr3
C          1.92590        0.05980       -0.20090
C          1.54280        0.80820       -1.27330
Cl         2.13430        0.60640        1.45970
H          2.12130       -0.99780       -0.31120
C          1.37170        0.18340       -2.65160
C          3.70540        4.44240       -0.60300
C          3.11440        3.28480       -0.26610
C          1.61710        3.11420       -0.29960
O          1.27440        2.15050       -1.22800
C          5.20340        4.59940       -0.59110
H          3.09290        5.28900       -0.90070
H          3.72900        2.43940        0.02570
H          1.13490        4.06520       -0.61130
H          1.20440        2.87900        0.69870
Cl         2.47680        1.00290       -3.78360
Cl         1.69730       -1.57470       -2.76870
Cl        -0.29870        0.45210       -3.21020
Br         5.68470        6.39440       -1.14110
Br         5.91000        4.29770        1.19000
Br         6.02390        3.34710       -1.82620
