20
TSA8_9_Cl_CCl3_CBr3
C          3.13390        1.53520       -0.69210
C          1.65140        1.31200       -1.14780
Cl         3.27570        0.91550        0.97930
H          3.82350        0.92610       -1.31040
C          1.50160        0.49810       -2.44620
C          3.48610        3.04170       -0.82460
C          2.47670        3.89110       -0.02060
C          1.07470        3.26350       -0.05270
O          0.90620        2.52520       -1.24260
C          4.96220        3.45140       -0.55620
H          3.30520        3.27920       -1.89630
H          2.75510        4.04820        1.04330
H          0.30860        4.06250        0.02140
H          0.91350        2.60430        0.83280
Cl         2.24660        1.34000       -3.83200
Cl         2.24510       -1.11480       -2.27070
Cl        -0.22820        0.25100       -2.79800
Br         5.20880        5.32690       -1.00250
Br         5.54510        3.23110        1.28650
Br         6.17790        2.45030       -1.69390
