19
TSA8_9_CN_I_OMe
C          2.12390       -0.36250       -1.68060
C          2.65580       -1.42300       -0.73940
C          2.79750        0.93720       -1.50200
H          1.13920       -0.08920       -1.27180
I          1.59880       -1.79960        1.05540
C          1.95520       -0.83750       -3.16430
C          0.49200       -1.19100       -3.29100
C         -0.05010       -2.30700       -2.80270
O          3.69710       -2.02100       -0.96550
O          2.17040        0.22300       -4.09000
H          2.58130       -1.72580       -3.44430
H         -0.16780       -0.43940       -3.71550
H          0.55740       -3.08130       -2.34930
H         -1.12770       -2.43200       -2.85700
N          3.23620        1.98120       -1.33350
C          3.53320        0.36210       -4.45660
H          3.91210       -0.48280       -5.07330
H          4.19240        0.53910       -3.58380
H          3.61070        1.27560       -5.08330
