19
TSA8_9_CN_I_OMe
C          2.58070       -0.51340       -1.88240
C          1.67170       -1.28460       -0.86100
C          2.13080        0.89450       -1.87230
H          3.65230       -0.56360       -1.56170
I          2.24680       -1.41720        1.19750
C          2.40670       -1.20950       -3.28350
C          0.91130       -1.44940       -3.49060
C          0.38360       -2.38740       -2.39050
O          1.30420       -2.55960       -1.32590
O          2.91980       -0.68530       -4.50810
H          2.90590       -2.20020       -3.17190
H          0.40430       -0.46010       -3.44000
H          0.25310       -3.37390       -2.88030
H         -0.61390       -2.06170       -2.02380
N          1.78020        1.99570       -1.86550
C          3.70650        0.47980       -4.49880
H          4.51780        0.31610       -5.24230
H          4.20280        0.71960       -3.54010
H          3.10170        1.32940       -4.88450
