17
TSA8_9_H_CBr3_F
C          1.38670        1.85690        0.03340
C          1.96570        1.85760       -1.36560
H          1.93690        1.11750        0.65310
H          0.32510        1.53130       -0.00540
C          1.12320        1.45820       -2.55830
C          1.43140        3.24330        0.70450
C          2.83430        3.75660        0.91460
C          3.71530        3.11480        1.68860
O          3.13870        2.16350       -1.52390
F          0.72380        4.15080       -0.06480
H          0.93650        3.17500        1.69740
H          3.13640        4.68140        0.43160
H          3.45000        2.19300        2.19650
H          4.71460        3.51640        1.82100
Br         0.49530       -0.36340       -2.34230
Br        -0.40920        2.63350       -2.73320
Br         2.12640        1.54490       -4.22250
