17
TSA8_9_H_CBr3_F
C          1.95780        0.21230       -0.19470
C          1.73440        1.26370       -1.01330
H          2.31870        0.34630        0.81840
H          1.79090       -0.81190       -0.50060
C          1.22980        1.09470       -2.43570
C          1.87480        5.21830        1.50180
C          2.54940        4.44210        0.64820
C          2.40560        2.94850        0.64210
O          1.95560        2.54540       -0.60020
F          2.04040        6.56590        1.46910
H          1.19100        4.78940        2.22800
H          3.22650        4.90220       -0.06570
H          1.68950        2.61340        1.42530
H          3.40320        2.50300        0.84470
Br         0.92150       -0.73690       -3.03030
Br        -0.44620        2.04830       -2.62190
Br         2.51600        1.88450       -3.65090
