22
TSA8_9_Me_NO2_CHF2
C          2.27550       -1.56530        1.80730
C          0.80510       -1.70260        1.28310
C          3.17620       -0.97120        0.70950
H          2.29670       -0.82650        2.64010
N         -0.12390       -1.12460        2.22700
C          2.73410       -2.94840        2.33080
C          2.61220       -4.01300        1.22260
C          1.40910       -3.72880        0.30700
O          0.40130       -3.04720        1.01750
C          4.11630       -2.98380        3.00400
H          1.99700       -3.22410        3.11850
H          3.51430       -4.10420        0.57970
H          1.01890       -4.68860       -0.08930
H          1.69990       -3.13810       -0.58970
H          3.26660       -1.63010       -0.17510
H          4.19320       -0.77220        1.10120
H          2.76030        0.00320        0.37570
O         -0.25310       -1.59380        3.31730
O         -0.84950       -0.08710        1.87310
F          5.13300       -2.73040        2.10140
F          4.17150       -2.05710        4.02970
H          4.28510       -3.99350        3.43520
