14
TSA8_9_I_Br_Br
C          1.86600       -0.09710       -0.14250
C          1.41450       -0.79330       -1.20330
I          2.40810        1.95020       -0.03800
H          1.93480       -0.60760        0.81350
Br         0.90240       -2.61510       -0.91990
C          3.31220       -1.56460       -4.13490
C          3.39790       -0.40370       -3.47690
C          2.17250        0.42400       -3.20350
O          1.25500       -0.30200       -2.46350
Br         4.87640       -2.60870       -4.47550
H          2.35250       -1.93340       -4.48570
H          4.36450       -0.04830       -3.13440
H          1.70650        0.69670       -4.17320
H          2.45050        1.36550       -2.70720
