14
TSA8_9_I_Br_Br
C          2.64630       -0.89010       -1.29250
C          1.13660       -0.56800       -1.50240
I          3.67410        0.79320       -0.41640
H          2.75780       -1.69660       -0.53630
Br         0.08430       -2.16220       -1.15410
C          3.23800       -1.32010       -2.63820
C          3.07030       -0.20360       -3.68020
C          1.81780        0.64500       -3.39540
O          0.79590       -0.14090       -2.82440
Br         5.08890       -1.89730       -2.51680
H          2.64790       -2.19600       -2.98580
H          3.93720        0.49090       -3.72050
H          1.46600        1.10200       -4.34310
H          2.04680        1.49850       -2.72080
