21
TSA8_9_CH2F_H_OMe
C          1.80440       -0.10080        0.07300
C          1.39840       -1.30420        0.54730
C          1.88900        0.41410       -1.33840
H          2.10850        0.62330        0.82420
H          1.41140       -1.40690        1.62810
C          2.84660       -4.06650       -2.44560
C          2.39520       -2.89190       -1.96410
C          0.97640       -2.73030       -1.47390
O          0.96170       -2.40580       -0.13280
O          4.11990       -4.25710       -2.88900
H          2.17330       -4.91700       -2.48720
H          3.05790       -2.03740       -1.91510
H          0.39670       -1.99730       -2.06460
H          0.43140       -3.69160       -1.58710
F          3.19440        0.77980       -1.60660
H          1.24610        1.31540       -1.41910
H          1.56280       -0.27550       -2.12150
C          5.12180       -3.30800       -2.91000
H          6.04500       -3.76480       -3.32170
H          5.33330       -2.95010       -1.87980
H          4.82890       -2.45470       -3.55820
