21
TSA8_9_CH2F_H_OMe
C          2.48690       -1.35130       -0.35590
C          1.01950       -1.57030        0.12110
C          2.56010       -0.13260       -1.28900
H          3.10620       -1.10370        0.53580
H          1.01100       -1.64110        1.22960
C          3.01210       -2.65760       -0.99270
C          2.05520       -3.17280       -2.11040
C          0.59600       -2.82830       -1.77200
O          0.42020       -2.76370       -0.37570
O          4.41080       -2.60500       -1.27290
H          2.91030       -3.42160       -0.19020
H          2.23140       -2.77940       -3.13220
H          0.29110       -1.86210       -2.23770
H         -0.07530       -3.59440       -2.21160
F          3.87530        0.17610       -1.58390
H          2.11890        0.74870       -0.77610
H          2.00190       -0.30000       -2.23210
C          4.73450       -2.52410       -2.64390
H          4.54970       -3.49590       -3.14980
H          5.81950       -2.31150       -2.73050
H          4.21330       -1.68510       -3.15070
