23
TSA8_9_I_CCl3_Et
C          3.14310        1.46800       -1.48530
C          1.59520        1.21470       -1.47090
I          3.83590        1.05400        0.51430
H          3.65910        0.73790       -2.14370
C          1.10850        0.21530       -2.53840
C          3.40130        2.90370       -2.00180
C          2.66370        3.93200       -1.12280
C          1.32610        3.35930       -0.62330
O          0.82600        2.41720       -1.54770
C          4.86390        3.29520       -2.32890
H          2.89350        2.94150       -2.99090
H          3.23380        4.28020       -0.23700
H          0.60040        4.18580       -0.47980
H          1.44200        2.88410        0.37800
Cl         1.42130        0.81310       -4.19020
Cl         1.90110       -1.37000       -2.33060
Cl        -0.64620       -0.04120       -2.35660
C          5.84170        3.37060       -1.15710
H          4.84370        4.29700       -2.81100
H          5.26850        2.57360       -3.07160
H          5.50030        4.09410       -0.39000
H          6.82840        3.71270       -1.53460
H          6.00060        2.37620       -0.70340
