22
TSA8_9_OMe_CBr3_CN
C          2.13830        1.58570       -0.83630
C          1.00730        0.67260       -1.45500
O          2.24580        1.55990        0.59040
H          3.12850        1.23150       -1.19600
C          1.46910       -0.68950       -2.00620
C          2.02010        3.00820       -1.43650
C          0.57540        3.51230       -1.40900
C         -0.39250        2.42650       -1.91850
O          0.31670        1.35070       -2.49220
C          2.92900        4.00240       -0.85300
H          2.29300        2.90880       -2.51500
H          0.24980        3.86770       -0.41010
H         -1.05620        2.87190       -2.68590
H         -1.07120        2.06430       -1.11360
C          1.03310        1.64760        1.31880
H          1.05210        2.54420        1.97700
H          0.94890        0.75270        1.97100
H          0.11510        1.70050        0.71340
Br         2.20570       -1.83560       -0.63200
Br        -0.05690       -1.61030       -2.78290
Br         2.77560       -0.45450       -3.42830
N          3.63370        4.80910       -0.41530
