18
TSA8_9_OMe_I_H
C          0.48460       -0.99220       -0.93160
C          1.20710       -1.06770        0.43770
O          1.38960       -0.66300       -1.96890
H         -0.33910       -0.24330       -0.84290
I          0.24290        0.01290        2.03180
C         -0.17520       -2.33840       -1.27050
C         -0.76780       -2.91120        0.00650
C          0.40890       -3.23010        0.95800
O          1.55270       -2.38530        0.81740
H         -0.93680       -2.20260       -2.06780
H          0.58440       -3.06310       -1.64270
H         -1.45010       -2.15030        0.44550
H          0.75030       -4.24970        0.68130
H          0.06380       -3.27430        2.01280
C          1.58700        0.73360       -2.02010
H          2.32950        0.95300       -2.81410
H          2.00640        1.12050       -1.06520
H          0.64810        1.26270       -2.29640
