23
TSA8_9_NO2_CN_Et
C          1.62760       -0.06790       -0.01110
C          1.38920       -1.38530       -0.23390
N          1.81200        0.89940       -1.03530
H          1.65380        0.27900        1.02180
C          1.24030       -2.24870        0.91060
C          3.45650       -0.34960       -3.54060
C          2.86540       -1.47020       -3.10990
C          1.41760       -1.48030       -2.71820
O          1.26680       -1.99110       -1.44900
C          4.88580       -0.31490       -4.00090
H          2.88240        0.56910       -3.58830
H          3.41470       -2.40810       -3.06420
H          0.89490       -2.16220       -3.41910
H          0.90660       -0.50410       -2.82230
O          2.87120        1.44380       -1.09670
O          0.75920        1.57300       -1.44910
N          1.11910       -2.95410        1.81960
C          5.69570        0.68740       -3.18820
H          4.88960       -0.00060       -5.06530
H          5.36170       -1.31750       -3.92990
H          5.71900        0.38880       -2.11910
H          6.73640        0.72150       -3.57490
H          5.25350        1.70310       -3.27740
