20
TSA8_9_CBr3_NH2_OH
C          0.98770       -1.45460        0.85820
C          1.47550       -0.16170        1.57710
C          1.83230       -1.89550       -0.37420
H         -0.00310       -1.15130        0.45090
N          2.80020       -0.24960        2.18900
C          0.74520       -2.57320        1.90690
C          0.24670       -1.97380        3.23040
C         -0.37630       -0.58710        3.05390
O          0.53740        0.36760        2.51650
O         -0.19260       -3.49170        1.40830
H          1.70010       -3.09070        2.15180
H         -0.37220       -2.69230        3.81070
H         -0.68520       -0.23280        4.05930
H         -1.28680       -0.64440        2.41900
Br         2.09970       -0.39110       -1.57440
Br         3.57790       -2.63270        0.07230
Br         0.90210       -3.25200       -1.40910
H          2.88520       -1.09390        2.79720
H          3.53270       -0.25140        1.44670
H         -0.00490       -4.36370        1.84510
