18
TSA8_9_CF3_OH_F
C          1.55270       -1.07500       -1.28900
C          0.78130       -1.29650        0.00080
C          1.41650        0.39520       -1.74710
H          2.62840       -1.24130       -1.05890
O          1.41970       -1.69560        1.12230
C          1.21250       -2.10020       -2.41330
C         -0.19710       -2.06020       -2.95910
C         -1.25670       -2.51570       -2.28450
O         -0.41560       -1.06590        0.05780
F          2.07890       -1.88270       -3.47190
H          1.41640       -3.13130       -2.05050
H         -0.35320       -1.68870       -3.96800
H         -1.15700       -2.94670       -1.29520
H         -2.24190       -2.48260       -2.73810
F          2.21730        0.63620       -2.84910
F          0.10540        0.69370       -2.07480
F          1.82200        1.24000       -0.72810
H          2.36980       -1.87580        1.13690
