18
TSA8_9_CF3_OH_F
C          1.70110       -0.89770       -1.45760
C          0.83970       -1.36140       -0.26630
C          1.47090        0.60730       -1.73130
H          2.77710       -1.00000       -1.19340
O          1.26690       -2.59220        0.24760
C          1.40620       -1.82610       -2.65760
C         -0.09650       -1.91970       -2.92410
C         -0.80850       -2.31480       -1.62290
O         -0.54680       -1.38570       -0.58000
F          2.07880       -1.41790       -3.79570
H          1.75930       -2.84960       -2.40220
H         -0.49690       -0.95810       -3.30210
H         -0.52740       -3.34670       -1.31550
H         -1.90120       -2.33370       -1.81550
F          2.26170        1.02550       -2.78640
F          0.15010        0.89500       -2.02050
F          1.83210        1.33220       -0.60910
H          1.56400       -2.38750        1.17000
