17
TSA8_9_CCl3_Cl_F
C          1.60590       -1.61860        0.27750
C          0.79040       -0.67870        1.14640
C          1.55600       -1.18330       -1.22440
H          2.66310       -1.49390        0.60120
Cl         1.58350        0.25740        2.40440
C          1.28590       -3.12560        0.55450
C         -0.09750       -3.61510        0.19210
C         -1.19290       -3.30100        0.89010
O         -0.40330       -0.51180        0.95730
F          2.20060       -3.91260       -0.12240
H          1.44830       -3.33860        1.63420
H         -0.20360       -4.29530       -0.64830
H         -1.14460       -2.67080        1.76990
H         -2.15630       -3.70300        0.59430
Cl        -0.07200       -1.32430       -1.94920
Cl         2.06700        0.52270       -1.38370
Cl         2.68570       -2.13030       -2.23250
