23
TSA8_9_Et_Me_I
C          2.53480        1.26060        0.23930
C          1.30640        1.44010       -0.63520
C          2.36510       -0.06130        1.03750
H          3.39300        1.14190       -0.45860
C          1.44950        1.48120       -2.12760
C          2.84640        2.53670        1.08820
C          1.98070        2.75080        2.31100
C          0.71150        3.16270        2.25500
O          0.19110        1.50880       -0.14340
I          4.91770        2.62380        1.68200
H          2.78780        3.43650        0.43720
H          2.42200        2.60450        3.29230
H          0.22170        3.38040        1.31610
H          0.15400        3.31630        3.17370
C          3.58310       -0.50640        1.84030
H          2.14940       -0.87380        0.30860
H          1.49550        0.01700        1.72640
H          4.46890       -0.60320        1.17700
H          3.37600       -1.49630        2.29940
H          3.79240        0.19870        2.66690
H          2.09460        2.33710       -2.41620
H          0.45870        1.59760       -2.61600
H          1.91380        0.53700       -2.48260
