23
TSA8_9_Et_Me_I
C          1.85970        0.19990       -0.16050
C          1.44460        1.37910       -0.71060
C          1.97650       -0.22850        1.28350
H          2.14350       -0.59130       -0.85050
C          1.41380        1.48490       -2.21260
C          2.91050        4.33930        2.09670
C          2.47440        3.13710        1.70730
C          1.05270        2.91320        1.25550
O          1.02150        2.50820       -0.06250
I          4.91400        4.60040        2.70730
H          2.25140        5.20210        2.10460
H          3.16950        2.30900        1.71240
H          0.49330        3.87120        1.31740
H          0.49320        2.21230        1.90180
C          3.40360       -0.67700        1.58820
H          1.29690       -1.09330        1.44020
H          1.69890        0.53200        2.01680
H          3.69880       -1.51290        0.91810
H          3.46670       -1.02990        2.63930
H          4.11650        0.16240        1.45050
H          2.07280        2.31890       -2.53270
H          0.37600        1.70050       -2.54250
H          1.75450        0.55960       -2.72490
