23
TSA8_9_Et_Me_I
C          2.50350        1.29120        0.29490
C          1.11670        1.60760       -0.37260
C          2.30980        0.07390        1.24160
H          3.23000        0.97140       -0.48560
C          1.22530        1.66230       -1.89460
C          3.01580        2.60320        0.93550
C          2.00980        3.14180        1.95900
C          0.56690        2.89040        1.48880
O          0.51620        2.82280        0.08040
I          5.03110        2.66870        1.67070
H          3.04990        3.34590        0.10750
H          2.13390        2.70920        2.97480
H         -0.08420        3.70880        1.85870
H          0.14460        1.95870        1.92570
C          3.59060       -0.48660        1.85280
H          1.86970       -0.74690        0.63260
H          1.60060        0.29740        2.06190
H          4.32540       -0.73510        1.05780
H          3.35000       -1.41450        2.41360
H          4.03040        0.21920        2.57860
H          1.90170        2.48720       -2.20400
H          0.22030        1.83350       -2.33380
H          1.61740        0.69890       -2.28330
