17
TSA8_9_I_Me_Cl
C          2.92990       -0.39740       -1.60930
C          1.42730       -0.46060       -1.75460
I          3.40780        0.27700        0.37900
H          3.31050       -1.43950       -1.69120
C          0.75720       -1.76840       -2.05630
C          3.66820        0.41840       -2.70550
C          3.41360        1.91100       -2.69910
C          2.26740        2.46300       -3.10640
O          0.74240        0.53520       -1.58290
Cl         5.42860        0.15710       -2.50970
H          3.41590        0.01430       -3.71010
H          4.21380        2.58010       -2.39350
H          1.44500        1.86160       -3.47350
H          2.15590        3.54260       -3.09780
H          1.12220       -2.15730       -3.02990
H         -0.34540       -1.64320       -2.11160
H          0.99350       -2.50220       -1.25750
