17
TSA8_9_I_Me_Cl
C          1.86210       -0.01690       -0.16920
C          1.47550       -0.35360       -1.42250
I          2.28060        1.90500        0.62390
H          1.94450       -0.79670        0.58200
C          1.15710       -1.78950       -1.73070
C          3.96140        1.01460       -4.53070
C          3.50520        0.91520       -3.27760
C          2.19300        1.52210       -2.85760
O          1.32370        0.52520       -2.45550
Cl         5.48870        0.27370       -4.98080
H          3.39740        1.54630       -5.29090
H          4.08790        0.37210       -2.53880
H          1.72350        2.05700       -3.71100
H          2.35990        2.27570       -2.07490
H          1.82890       -2.14250       -2.54100
H          0.10470       -1.86900       -2.07430
H          1.29140       -2.45640       -0.85170
