17
TSA8_9_I_Me_Cl
C          2.99820       -0.18840       -1.56560
C          1.44550       -0.10740       -1.73350
I          3.64020        1.11130        0.03090
H          3.30440       -1.20300       -1.22870
C          0.84840       -1.49640       -1.95300
C          3.65600        0.15270       -2.90770
C          3.23020        1.55240       -3.37770
C          1.80800        1.89010       -2.89740
O          1.02180        0.72240       -2.81920
Cl         5.43440        0.00100       -2.87010
H          3.27620       -0.58210       -3.65040
H          3.90260        2.36180       -3.01910
H          1.34860        2.61840       -3.59680
H          1.82310        2.39520       -1.90590
H          1.24190       -1.94670       -2.88920
H         -0.25660       -1.41820       -2.02680
H          1.09310       -2.15790       -1.09550
