21
TSA8_9_Br_OMe_CH2F
C          3.19770        1.82370        0.41300
C          1.68830        1.82770        0.22390
Br         3.88450        0.05230       -0.03120
H          3.66810        2.52630       -0.30270
O          1.05480        2.63650       -0.66820
C          3.60050        2.28940        1.83770
C          3.08780        1.35100        2.91060
C          2.23280        1.75540        3.85520
O          1.00630        1.06820        0.89410
C          5.12530        2.42450        1.96660
H          3.17180        3.30720        1.98540
H          3.42430        0.31840        2.91880
H          1.87080        2.77840        3.88620
H          1.88780        1.05530        4.60900
C          1.65860        3.55890       -1.49570
H          0.87970        4.06800       -2.09930
H          2.36390        3.05200       -2.18810
H          2.19270        4.32390       -0.89210
F          5.45510        2.92630        3.21380
H          5.51040        3.12620        1.19640
H          5.62770        1.44310        1.83340
