21
TSA8_9_Br_OMe_CH2F
C          3.27520        1.37070        0.63040
C          1.72460        1.49130        0.52740
Br         3.71870       -0.41650        1.27250
H          3.73370        1.45260       -0.37830
O          1.25620        1.87440       -0.75410
C          3.78340        2.49200        1.55970
C          3.09410        2.40860        2.93690
C          1.65570        1.87250        2.81210
O          1.09480        2.23780        1.57010
C          5.31120        2.57410        1.68230
H          3.45320        3.44760        1.09700
H          3.62870        1.76590        3.66950
H          1.04110        2.26950        3.64600
H          1.63290        0.76360        2.92290
C          1.54950        3.22980       -1.01970
H          1.02050        3.52200       -1.94960
H          2.63440        3.37880       -1.20500
H          1.17480        3.90930       -0.22330
F          5.83650        1.44790        2.28960
H          5.58780        3.46200        2.28970
H          5.76460        2.68780        0.67480
