17
TSA8_9_CCl3_Br_Br
C          1.62860       -0.43350       -1.63470
C          0.81860       -0.95530       -0.46220
C          1.65950        1.13580       -1.62170
H          2.67670       -0.76670       -1.46810
Br         1.67350       -1.96610        0.91890
C          1.16370       -1.16790       -2.93710
C         -0.22990       -0.81830       -3.39950
C         -1.21680       -1.72000       -3.41640
O         -0.38280       -0.75080       -0.38430
Br         2.38040       -0.95710       -4.43820
H          1.21250       -2.25760       -2.71200
H         -0.44210        0.18590       -3.74560
H         -1.05310       -2.74150       -3.08690
H         -2.20490       -1.43540       -3.76280
Cl         0.05110        1.90320       -1.76550
Cl         2.35140        1.69660       -0.07140
Cl         2.70690        1.82600       -2.88740
