17
TSA8_9_CCl3_Br_Br
C          1.81420       -0.02020       -0.03240
C          1.11280       -0.95590       -0.70030
C          2.17900        1.37800       -0.49790
H          2.16350       -0.28320        0.96260
Br         0.80940       -2.64150        0.18260
C         -0.12800       -1.62960       -5.13690
C         -0.47400       -1.02610       -3.99480
C         -0.14770       -1.61810       -2.65490
O          0.63140       -0.72910       -1.94770
Br        -0.56330       -0.83720       -6.82080
H          0.40380       -2.57650       -5.13080
H         -1.00650       -0.08010       -4.02970
H          0.39400       -2.58300       -2.77060
H         -1.09740       -1.80080       -2.10680
Cl         1.61810        1.85140       -2.12850
Cl         1.49980        2.54430        0.66210
Cl         3.95150        1.53200       -0.47240
