17
TSA8_9_CCl3_Br_Br
C          1.68260       -0.39910       -1.76310
C          0.74460       -1.12230       -0.76880
C          1.61470        1.15190       -1.52390
H          2.73060       -0.68070       -1.51900
Br         1.23360       -2.97450       -0.38440
C          1.36330       -0.97030       -3.17940
C         -0.12840       -0.89260       -3.49470
C         -0.91740       -1.55250       -2.35610
O         -0.62900       -0.96330       -1.09690
Br         2.40940       -0.26700       -4.65650
H          1.61670       -2.05300       -3.16070
H         -0.45270        0.15240       -3.65060
H         -0.73100       -2.64780       -2.33440
H         -1.99970       -1.42920       -2.56680
Cl         0.01620        1.90200       -1.79240
Cl         2.04920        1.49350        0.17670
Cl         2.80910        2.04990       -2.49650
