17
TSA8_9_Cl_NO2_OH
C          3.02060       -1.12670        0.84320
C          1.52260       -1.27800        1.05170
Cl         3.31400        0.05490       -0.46860
H          3.46770       -0.69150        1.76110
N          0.93900       -1.00850        2.25500
C          3.80130       -2.44470        0.58990
C          3.46120       -3.17250       -0.69580
C          2.32150       -3.84300       -0.88600
O          0.82120       -1.61350        0.10760
O          5.16890       -2.11970        0.55850
H          3.61740       -3.12790        1.45360
H          4.20150       -3.19480       -1.49120
H          1.56320       -3.90630       -0.11500
H          2.15170       -4.36250       -1.82370
O         -0.24320       -1.11910        2.38540
O          1.66130       -0.63030        3.28870
H          5.66930       -2.92760        0.84800
