17
TSA8_9_Cl_NO2_OH
C          2.87320       -1.13020        0.62800
C          1.35120       -1.46910        0.74570
Cl         3.23070       -0.40920       -0.97300
H          3.15970       -0.35440        1.37090
N          0.87270       -1.15120        2.07860
C          3.67940       -2.41260        0.85590
C          3.28450       -3.48330       -0.17940
C          1.82020       -3.32060       -0.62110
O          1.03360       -2.83460        0.44230
O          5.05760       -2.15530        0.80900
H          3.39990       -2.77540        1.87260
H          3.91210       -3.45360       -1.09670
H          1.43340       -4.30020       -0.96960
H          1.73110       -2.63460       -1.49310
O          0.38210       -1.99340        2.76930
O          0.91810        0.09080        2.51000
H          5.50790       -2.96010        1.17680
