23
TSA8_9_CH2F_CH2F_CF3
C          2.81520        0.44050       -1.17760
C          1.36340        0.09600       -1.66570
C          2.73730        1.03800        0.24080
H          3.40480       -0.49880       -1.07790
C          1.24920       -1.36330       -2.10450
C          3.48370        1.34850       -2.24720
C          2.62620        2.60320       -2.50550
C          1.12760        2.27930       -2.40500
O          0.90250        0.92690       -2.73080
C          4.96380        1.70940       -2.02270
H          3.45620        0.74600       -3.18400
H          2.84120        3.45000       -1.81820
H          0.56260        2.94200       -3.09200
H          0.72900        2.49560       -1.38760
F          3.99390        1.17330        0.79800
H          2.16910        0.34220        0.89480
H          2.22150        2.01840        0.25590
F         -0.05760       -1.64380       -2.45860
H          1.54070       -2.03370       -1.26870
H          1.91240       -1.55510       -2.97500
F          5.12480        2.55480       -0.94060
F          5.70490        0.55920       -1.81950
F          5.45230        2.35260       -3.14620
