21
TSA8_9_CBr3_CN_CBr3
C          1.39610       -0.14850       -0.21150
C          1.96450       -1.11180       -0.97430
C          1.87010        1.27810       -0.02470
H          0.45390       -0.37660        0.24430
C          3.28260       -0.96990       -1.53130
C         -0.75710       -3.13220       -3.92500
C         -0.12730       -2.20550       -3.17950
C         -0.03320       -2.31770       -1.67280
O          1.30050       -2.26760       -1.26990
C         -0.89490       -3.02530       -5.42730
H         -1.20240       -3.98920       -3.43050
H          0.30890       -1.33290       -3.66140
H         -0.50660       -3.25060       -1.30080
H         -0.61960       -1.47720       -1.26040
Br         0.96270        2.08360        1.48960
Br         3.77270        1.58430        0.21470
Br         1.26610        2.23380       -1.59730
N          4.35700       -0.89680       -1.95470
Br        -1.88970       -4.54720       -6.10420
Br        -1.86320       -1.41940       -5.92570
Br         0.83930       -3.01140       -6.29410
