15
TSA8_9_F_Br_OH
C          1.93300       -0.06880       -0.27750
C          1.41740        0.09580       -1.50940
F          2.50440        0.93940        0.43000
H          1.88560       -1.04620        0.19180
Br         0.61710       -1.41920       -2.35940
C          4.28100        2.94730       -2.97860
C          3.57070        2.25280       -2.07700
C          2.08330        2.44640       -1.91620
O          1.40930        1.27240       -2.20090
O          5.61230        2.75860       -3.11570
H          3.79300        3.67580       -3.61860
H          4.07860        1.52840       -1.44850
H          1.72390        3.22300       -2.62470
H          1.83480        2.80480       -0.89610
H          6.10480        2.12080       -2.57910
