17
TSA8_9_CN_NO2_I
C          2.51160       -1.02510        0.89670
C          1.98600        0.07710        1.87570
C          1.60800       -1.25950       -0.25410
H          3.45680       -0.66880        0.44080
N          1.78390        1.37370        1.49520
C          2.78730       -2.44760        1.53320
C          1.94670       -2.73140        2.73880
C          0.63260       -2.90780        2.64220
O          1.75630       -0.19680        3.04390
I          4.83220       -2.88200        2.00290
H          2.63270       -3.26320        0.78720
H          2.41710       -2.69530        3.71960
H          0.04270       -3.01770        3.54320
H          0.15370       -2.92280        1.66980
N          0.97120       -1.49880       -1.18320
O          1.39270        2.17170        2.29420
O          2.04680        1.76890        0.27110
