17
TSA8_9_CN_NO2_I
C          2.51780       -1.20270        0.62810
C          1.40170       -0.27150        1.24080
C          2.10080       -1.53400       -0.74460
H          3.47350       -0.63490        0.58060
N          1.91520        1.07260        1.41440
C          2.76340       -2.54160        1.37800
C          2.26780       -2.48950        2.80000
C          0.82420       -2.03070        2.71330
O          0.79320       -0.65060        2.46900
I          4.78620       -3.24540        1.31170
H          2.16520       -3.35790        0.91690
H          2.85280       -1.78760        3.43790
H          0.33190       -2.22070        3.68570
H          0.24140       -2.59000        1.94200
N          1.72720       -1.81990       -1.80250
O          2.79080        1.28040        2.20120
O          1.28650        2.08790        0.86570
