24
TSA8_9_CF3_CN_Et
C          2.85710        0.26180       -1.28470
C          1.59260       -0.52870       -1.59380
C          2.53830        1.22290       -0.10010
H          3.62620       -0.47060       -0.95140
C          1.55660       -1.95620       -1.39970
C          3.37290        0.91610       -2.61660
C          2.59020        2.16220       -2.97110
C          1.66980        2.16920       -3.93940
O          0.57990        0.03620       -1.97370
C          4.90520        1.15010       -2.75630
H          3.19050        0.14790       -3.40510
H          2.76020        3.07440       -2.40740
H          1.44700        1.27130       -4.50750
H          1.11290        3.07560       -4.15000
F          3.63570        1.94670        0.30180
F          1.52870        2.11240       -0.42880
F          2.10560        0.47940        0.98430
N          1.52750       -3.10460       -1.24300
C          5.58450        2.10230       -1.77560
H          5.08440        1.54710       -3.78080
H          5.43140        0.17260       -2.68870
H          5.09580        3.09790       -1.76880
H          6.64360        2.23850       -2.08450
H          5.61600        1.66190       -0.76230
