24
TSA8_9_CF3_CN_Et
C          2.98200        0.34390       -1.23580
C          1.55950       -0.15200       -1.54060
C          2.78160        1.33710       -0.05240
H          3.60960       -0.49830       -0.86800
C          1.36600       -1.56260       -1.92120
C          3.58130        0.85340       -2.59060
C          2.67200        1.93700       -3.15810
C          1.26680        1.33630       -3.36120
O          0.69970        0.78660       -2.17800
C          5.09310        1.20290       -2.71510
H          3.49840        0.00650       -3.31280
H          2.66470        2.83960       -2.51360
H          1.28910        0.57400       -4.17030
H          0.60790        2.15910       -3.71020
F          3.94720        1.89330        0.40230
F          1.90550        2.36100       -0.36840
F          2.23080        0.63710        1.00830
N          1.23460       -2.68280       -2.18710
C          5.70640        2.21660       -1.75930
H          5.25070        1.58430       -3.75030
H          5.69070        0.27030       -2.62180
H          5.13050        3.16380       -1.73570
H          6.74470        2.43710       -2.08860
H          5.81750        1.76850       -0.75680
