23
TSA8_9_CHF2_CCl3_CBr3
C          1.64290       -0.05050        0.06330
C          1.42280       -1.05550        0.95860
C          1.78110       -0.14690       -1.43800
H          1.70560        0.97010        0.41700
C          1.20050       -0.77580        2.43970
C          4.25700       -4.11010        1.14950
C          2.94880       -4.10640        0.83120
C          2.36990       -3.05860       -0.07460
O          1.38670       -2.37450        0.61780
C          4.92240       -5.10670        2.06860
H          4.89900       -3.34070        0.72870
H          2.26980       -4.85200        1.22710
H          1.92120       -3.56180       -0.95670
H          3.17070       -2.36720       -0.41900
F          3.05770        0.22760       -1.81210
F          1.48440       -1.38690       -1.96030
H          1.05570        0.56200       -1.88870
Cl         2.45320       -1.62310        3.38280
Cl         1.23680        0.94620        2.93080
Cl        -0.38940       -1.42700        2.91150
Br         6.31990       -6.01370        1.08490
Br         5.73400       -4.13340        3.53130
Br         3.74840       -6.45990        2.83230
