20
TSA8_9_I_Me_CBr3
C          1.84430        0.13890        0.06340
C          1.47010        0.93970        1.07590
I          2.10180       -1.95270        0.28090
H          2.01150        0.54650       -0.92890
C          1.26240        2.41220        0.85000
C          4.16670        1.75350        3.52800
C          2.86240        1.47970        3.70340
C          2.25630        0.18700        3.22840
O          1.24780        0.42970        2.31420
C          4.84820        3.02600        3.97680
H          4.79170        1.01940        3.02600
H          2.19930        2.18280        4.19210
H          1.82040       -0.32860        4.10880
H          3.01860       -0.48770        2.78300
H          1.94750        2.99220        1.50210
H          0.21470        2.67760        1.10120
H          1.45590        2.70290       -0.20440
Br         6.29170        2.55760        5.17750
Br         5.60060        3.89990        2.42340
Br         3.70770        4.31400        4.89130
