18
TSA8_9_Br_CHF2_CN
C          2.45030       -1.92300        0.02760
C          1.39460       -1.92530        1.11650
Br         2.05360       -0.32920       -1.05490
H          3.45640       -1.69830        0.44220
C          1.63600       -1.33620        2.47520
C          2.44920       -3.28560       -0.74050
C          1.96530       -3.08100       -2.15650
C          0.66100       -3.06700       -2.41390
O          0.27390       -2.34790        0.86810
C          3.72590       -4.01770       -0.78780
H          1.78520       -4.01330       -0.24130
H          2.67840       -2.83210       -2.93100
H         -0.06040       -3.26250       -1.62480
H          0.31390       -2.82860       -3.40760
F          1.50240       -2.31460        3.44140
F          2.88900       -0.75980        2.57130
H          0.87380       -0.54460        2.64650
N          4.73940       -4.59000       -0.75640
