18
TSA8_9_Br_CHF2_CN
C          1.64640       -0.08360        0.06290
C          1.41210       -1.25250        0.70950
Br         1.72160        0.29480       -1.81790
H          1.83820        0.79560        0.66780
C          1.48170       -1.24450        2.21370
C          2.32950       -4.91370       -1.41200
C          2.24130       -3.58360       -1.50230
C          0.97710       -2.86950       -1.16440
O          1.14300       -2.45780        0.13770
C          3.60870       -5.55830       -1.56110
H          1.45610       -5.51240       -1.16750
H          3.12930       -2.98530       -1.68950
H          0.09890       -3.55150       -1.19590
H          0.73400       -2.06950       -1.87830
F          1.40400       -2.53450        2.71300
F          2.68220       -0.69060        2.62310
H          0.64380       -0.64600        2.62410
N          4.64070       -6.06640       -1.68270
