18
TSA8_9_Br_CHF2_CN
C          2.76840       -1.97400       -0.22100
C          1.37570       -1.64450        0.40430
Br         3.10610       -0.70800       -1.66740
H          3.58800       -1.81760        0.51350
C          1.43730       -1.52270        1.93110
C          2.75070       -3.43020       -0.70560
C          1.64230       -3.60330       -1.74720
C          0.36170       -2.86990       -1.30950
O          0.36800       -2.60470        0.07860
C          4.04070       -3.90880       -1.21930
H          2.50310       -4.06550        0.17100
H          1.93010       -3.21530       -2.75250
H         -0.49900       -3.52420       -1.55970
H          0.21490       -1.92080       -1.87260
F          1.70080       -2.75410        2.50520
F          2.41240       -0.61830        2.31340
H          0.45820       -1.15660        2.30400
N          5.04430       -4.31580       -1.62930
