14
TSA8_9_Br_H_F
C          1.97530        0.04910        0.17720
C          1.50910       -1.06700        0.74010
Br         2.85230       -0.01230       -1.51940
H          1.85000        1.00770        0.67180
H          1.62510       -2.01760        0.22460
C          2.08880       -3.21090        3.58220
C          1.05940       -3.26220        2.73260
C          0.17690       -2.07040        2.47940
O          0.87240       -1.00730        1.93510
F          2.85050       -4.31740        3.78900
H          2.32190       -2.29820        4.11860
H          0.84280       -4.19280        2.21510
H         -0.28420       -1.74770        3.43640
H         -0.64000       -2.36180        1.78430
