20
TSA8_9_CF3_H_CF3
C          1.79430        0.02460        0.03290
C          1.10250        1.17310        0.09670
C          2.12640       -0.85980        1.20940
H          2.14030       -0.30390       -0.94280
H          0.91800        1.71760       -0.82660
C         -0.17590        4.26260        3.32850
C         -0.49420        3.08780        2.75900
C         -0.15780        2.79010        1.32590
O          0.63080        1.66300        1.26760
C         -0.49950        4.59870        4.75930
H          0.33680        5.02140        2.74350
H         -1.01210        2.32110        3.32720
H          0.37550        3.64610        0.85430
H         -1.10240        2.60910        0.76940
F          3.49950       -0.98280        1.30520
F          1.64090       -0.36550        2.40680
F          1.57910       -2.11050        0.99420
F          0.67300        4.88730        5.43170
F         -1.14050        3.55520        5.40580
F         -1.31880        5.71140        4.78610
