20
TSA8_9_CF3_CHF2_H
C          2.45410        1.00770       -0.48830
C          1.09130        1.09510       -1.17810
C          2.32790        0.55710        0.98840
H          3.02320        0.19490       -0.99210
C          0.97340        1.31120       -2.66720
C          3.30230        2.29740       -0.68320
C          2.68500        3.58650       -0.19480
C          2.59670        3.91500        1.09660
O          0.06540        0.93830       -0.53020
H          3.47280        2.41180       -1.77270
H          4.31380        2.17950       -0.23810
H          2.33830        4.30390       -0.93310
H          2.16240        4.86730        1.38310
H          2.97300        3.26250        1.87540
F          3.57860        0.49470        1.57720
F          1.51850        1.40480        1.72090
F          1.76780       -0.70810        1.03300
F         -0.35200        1.24610       -3.06150
F          1.47170        2.54750       -3.02960
H          1.53620        0.51540       -3.19820
