20
TSA8_9_CF3_CHF2_H
C          1.79260        0.09250       -0.10910
C          1.41980        1.25150       -0.70040
C          1.95380       -0.13870        1.37530
H          1.98540       -0.77420       -0.73560
C          1.23370        1.29980       -2.19830
C          4.01670        4.01080       -0.99630
C          2.71590        4.03720       -0.69230
C          2.14860        3.25320        0.45790
O          1.16990        2.37210        0.02820
H          4.38810        4.59170       -1.83420
H          4.71740        3.41520       -0.41960
H          2.04380        4.64430       -1.29170
H          1.68490        3.97750        1.15840
H          2.94460        2.70590        1.00960
F          3.26510       -0.48780        1.63710
F          1.62060        0.96200        2.14080
F          1.13160       -1.18470        1.74950
F         -0.06640        1.67080       -2.48470
F          2.10030        2.21230       -2.76560
H          1.42590        0.31190       -2.66910
