20
TSA8_9_CF3_CHF2_H
C          2.67400        1.06110       -0.34410
C          1.23330        1.48380       -0.71550
C          2.69530        0.30970        1.01050
H          3.04000        0.29270       -1.06160
C          0.96020        1.62460       -2.22010
C          3.63670        2.26990       -0.40110
C          2.93180        3.62220       -0.22370
C          1.63840        3.49340        0.57810
O          0.69030        2.57020        0.03980
H          4.11580        2.31580       -1.40380
H          4.46280        2.14210        0.32950
H          2.65180        4.03880       -1.21140
H          1.16600        4.49790        0.59380
H          1.86080        3.25450        1.63270
F          3.97820       -0.13940        1.27210
F          2.28270        1.08290        2.07310
F          1.86350       -0.79400        0.93190
F         -0.39010        1.83860       -2.42420
F          1.67110        2.65850       -2.79290
H          1.24340        0.68040       -2.73040
