19
TSA8_9_OMe_CN_H
C          1.33420       -1.42060       -0.46470
C          1.58250       -1.48640        1.06070
O          2.21860       -0.50060       -1.07020
H          0.27760       -1.12650       -0.60460
C          1.08730       -0.29490        1.76460
C          1.53830       -2.84070       -0.97360
C          0.38200       -3.68710       -0.41480
C         -0.05100       -3.20500        0.98970
O          1.05640       -2.67600        1.69740
H          1.56370       -2.91090       -2.08010
H          2.51270       -3.23180       -0.58520
H         -0.50860       -3.56960       -1.07340
H         -0.52560       -4.04470        1.54000
H         -0.82460       -2.40860        0.91580
C          1.61340        0.12130       -2.19840
H          2.13530       -0.18500       -3.12640
H          1.67610        1.22230       -2.07980
H          0.53100       -0.10030       -2.36630
N          0.71660        0.66180        2.30380
