20
TSA8_9_CBr3_CH2F_H
C          0.73110       -1.03940        0.41170
C          1.39930       -2.30750       -0.20210
C          1.43800        0.32230        0.15850
H         -0.23320       -0.97390       -0.14020
C          2.85000       -2.60820        0.19050
C          0.38950       -1.28900        1.89800
C         -0.05820       -2.73800        2.14710
C         -0.46620       -3.42310        0.83890
O          0.60640       -3.49630       -0.09640
H          1.25630       -1.09840        2.56450
H         -0.42110       -0.59150        2.19770
H          0.78730       -3.33020        2.55840
H         -1.34420       -2.91830        0.38130
H         -0.78000       -4.45860        1.08620
Br         0.26170        1.78580        0.66040
Br         3.08890        0.57840        1.15970
Br         1.82520        0.54150       -1.73180
F          2.98330       -2.81720        1.54950
H          3.51830       -1.78810       -0.13070
H          3.18740       -3.51970       -0.34560
