18
TSA8_9_CN_Me_I
C          2.64900        1.08520        0.52290
C          1.44940        1.57320       -0.26520
C          2.34600       -0.28000        0.99920
H          3.50150        1.01670       -0.18640
C          1.50760        1.65180       -1.76360
C          3.01690        2.05040        1.68700
C          2.24460        1.72620        2.94610
C          1.03240        2.21060        3.20450
O          0.40520        1.85930        0.30000
I          5.10420        1.95480        2.17820
H          2.89850        3.11610        1.38310
H          2.66810        0.99670        3.63280
H          0.55730        2.91720        2.53710
H          0.50560        1.87800        4.09260
N          2.07200       -1.33180        1.39720
H          2.32070        2.32840       -2.09840
H          0.54060        2.01630       -2.17250
H          1.69110        0.63190       -2.16470
