18
TSA8_9_CN_Me_I
C          2.77160        0.98560        0.67530
C          1.40070        1.46770        0.12690
C          2.47840       -0.28610        1.36480
H          3.49000        0.76740       -0.14570
C          1.47450        1.87070       -1.35200
C          3.31290        2.09020        1.61510
C          2.35980        2.23570        2.78770
C          0.90920        2.29590        2.28490
O          0.82850        2.53680        0.88550
I          5.31520        1.94900        2.35290
H          3.31460        3.05140        1.05340
H          2.47310        1.36360        3.47830
H          0.45070        3.15030        2.81980
H          0.33440        1.38440        2.56580
N          2.22270       -1.26280        1.93140
H          2.12230        2.76080       -1.50080
H          0.45410        2.10260       -1.72160
H          1.87060        1.03240       -1.96640
