22
TSA8_9_Me_NO2_CH2F
C          1.76420        0.12290       -0.06890
C          1.47500        1.41420       -0.34840
C          1.83680       -0.44270        1.32290
H          1.94370       -0.57660       -0.87930
N          1.37830        1.85900       -1.70140
C          3.16480        5.15120        0.76530
C          3.07150        3.83870        0.50470
C          2.26260        2.91420        1.37720
O          1.25140        2.30720        0.65250
C          3.97520        6.06120       -0.10640
H          2.64890        5.57790        1.62110
H          3.59370        3.42130       -0.35220
H          1.79760        3.47810        2.21370
H          2.93920        2.15240        1.81730
H          1.59890        0.30160        2.10840
H          2.85560       -0.84350        1.50330
H          1.10360       -1.27060        1.41350
O          1.10180        2.99650       -1.93400
O          1.57770        1.02920       -2.70440
F          5.29840        5.65860       -0.11000
H          3.91580        7.09950        0.28240
H          3.57990        6.04370       -1.14380
