17
TSA8_9_F_Me_H
C          1.80170       -1.77860        0.92690
C          0.65590       -1.52990        1.87180
F          1.36880       -1.53340       -0.36430
H          2.63410       -1.07860        1.16060
C          0.76370       -0.48220        2.93820
C          2.31460       -3.22190        1.07040
C          3.50790       -3.50510        0.19410
C          3.44160       -3.49650       -1.14120
O         -0.37210       -2.18240        1.76680
H          2.62590       -3.37350        2.12720
H          1.50690       -3.94960        0.83680
H          4.45590       -3.74310        0.66780
H          2.51410       -3.28330       -1.66110
H          4.32790       -3.71570       -1.72790
H          1.60990       -0.72520        3.61430
H         -0.17090       -0.43420        3.53700
H          0.94070        0.50900        2.47080
