17
TSA8_9_F_Me_H
C          2.04170       -0.18220        0.20370
C          1.44200       -1.17720        0.88640
F          2.42520       -0.32850       -1.09110
H          2.20580        0.78390        0.66940
C          0.98590       -0.95320        2.29980
C          2.71650       -4.47770        1.73830
C          3.12490       -3.72520        0.71210
C          2.14420       -3.19320       -0.29590
O          1.20250       -2.39780        0.33740
H          3.43300       -4.85530        2.46050
H          1.66460       -4.72220        1.86620
H          4.18040       -3.49590        0.60560
H          1.62730       -4.05570       -0.76820
H          2.67470       -2.64330       -1.09680
H          1.50560       -1.67590        2.96320
H         -0.10800       -1.12140        2.36840
H          1.21150        0.07490        2.65700
