17
TSA8_9_F_Me_H
C          2.90010       -1.43800        1.11650
C          1.38210       -1.36220        0.75570
F          3.66300       -1.09570        0.01210
H          3.15220       -0.71460        1.92200
C          0.54760       -0.99520        1.98260
C          3.23230       -2.86970        1.53210
C          2.90740       -3.84040        0.38560
C          1.80830       -3.28050       -0.53560
O          0.84420       -2.57200        0.21120
H          4.29200       -2.98560        1.84460
H          2.59290       -3.12890        2.40250
H          3.79400       -4.05030       -0.25100
H          1.32930       -4.11780       -1.08400
H          2.23790       -2.61110       -1.31560
H          0.63190       -1.77620        2.76730
H         -0.51870       -0.89700        1.68910
H          0.88370       -0.02140        2.39670
