20
TSA8_9_I_CCl3_CF3
C          1.64960       -0.11080       -0.06990
C          1.52070       -1.41530       -0.42520
I          1.89570        1.56640       -1.35450
H          1.58210        0.19190        0.96610
C          1.25600       -2.50700        0.60110
C          2.52690       -3.62990       -3.82500
C          3.18610       -2.60760       -3.26100
C          2.45820       -1.41940       -2.70660
O          1.59110       -1.84300       -1.71780
C          3.25900       -4.82130       -4.36770
H          1.44190       -3.60410       -3.88890
H          4.27070       -2.63330       -3.19460
H          1.88250       -0.92590       -3.51850
H          3.22240       -0.72200       -2.30830
Cl         2.56600       -3.71090        0.50500
Cl         1.14580       -1.96650        2.30480
Cl        -0.27780       -3.31710        0.19610
F          3.97860       -5.43040       -3.35520
F          2.35270       -5.72840       -4.88450
F          4.12410       -4.42510       -5.37130
