20
TSA8_9_I_CCl3_CF3
C          2.81850       -2.43910       -1.29980
C          1.45260       -1.74980       -0.96330
I          4.35230       -0.92640       -1.24930
H          3.10140       -3.16580       -0.50930
C          0.70240       -2.38780        0.22160
C          2.69530       -3.16780       -2.65710
C          2.25120       -2.18130       -3.75540
C          1.29340       -1.12200       -3.18700
O          0.58140       -1.65430       -2.09140
C          3.93190       -3.98230       -3.07520
H          1.86610       -3.89870       -2.53130
H          3.09060       -1.64960       -4.25390
H          0.59440       -0.78840       -3.98090
H          1.85020       -0.20870       -2.87190
Cl         0.26850       -4.08560       -0.11690
Cl         1.69120       -2.32090        1.70540
Cl        -0.79670       -1.47700        0.53990
F          4.25080       -4.89430       -2.08480
F          3.65450       -4.67790       -4.23890
F          5.02340       -3.16470       -3.30180
