21
TSA8_9_NO2_OMe_OH
C          3.04670       -1.06810        0.50960
C          2.15890       -0.85930        1.71430
N          2.32770       -0.73490       -0.71000
H          3.89260       -0.35160        0.63800
O          2.54510        0.04140        2.65510
C          3.71600       -2.46880        0.40730
C          2.80050       -3.62920        0.06850
C          1.88180       -4.12920        0.89840
O          1.09250       -1.44690        1.81980
O          4.69120       -2.38610       -0.60310
H          4.22100       -2.67930        1.38160
H          2.92100       -4.11170       -0.89830
H          1.73370       -3.73560        1.89420
H          1.27730       -4.97350        0.58150
O          2.68850        0.18110       -1.38420
O          1.26560       -1.42350       -1.07180
C          1.84140        0.30670        3.81000
H          2.37340        1.09250        4.38500
H          1.77560       -0.60990        4.43420
H          0.82150        0.67160        3.56440
H          5.46860       -2.93150       -0.31140
