21
TSA8_9_NO2_OMe_OH
C          1.88570       -0.01620       -0.19250
C          1.87630       -0.47850        1.08350
N          1.44720       -0.69490       -1.36700
H          2.24450        1.00220       -0.32980
O          2.24930        0.41150        2.04010
C          4.23550       -3.85820        1.56100
C          3.47840       -2.99350        0.87150
C          1.97860       -2.96460        0.99500
O          1.54220       -1.74310        1.49030
O          5.57950       -3.87410        1.41950
H          3.77650       -4.56510        2.24510
H          3.95060       -2.29300        0.18840
H          1.62340       -3.75370        1.69240
H          1.54800       -3.22030        0.02160
O          1.62070       -0.17140       -2.42530
O          0.61470       -1.70610       -1.29960
C          2.33100        0.10860        3.38230
H          2.64080        1.01540        3.94160
H          3.08600       -0.68950        3.54800
H          1.34150       -0.22440        3.76280
H          6.04440       -3.27620        0.81590
