23
TSA8_9_CHF2_CF3_CBr3
C          2.39530        1.65950        0.73140
C          1.49810        1.37340       -0.47040
C          2.49610        0.37600        1.58560
H          3.41680        1.84310        0.34740
C          2.00990        1.40580       -1.89040
C          1.92580        2.98510        1.44370
C          0.50870        2.87880        1.98350
C         -0.49730        3.60800        1.48970
O          0.32050        1.09820       -0.29130
C          2.86460        3.57100        2.54580
H          1.94410        3.74500        0.62820
H          0.29510        2.19770        2.80000
H         -0.33920        4.30680        0.67460
H         -1.49430        3.50520        1.90550
F          3.49130        0.47260        2.53440
F          1.29450        0.05490        2.19000
H          2.78380       -0.46990        0.92390
F          1.81990        0.16470       -2.47040
F          1.30080        2.35080       -2.60740
F          3.35510        1.72130       -1.95600
Br         2.30390        5.38860        2.95680
Br         2.83800        2.62660        4.24930
Br         4.70490        3.71140        1.93620
