23
TSA8_9_CHF2_CF3_CBr3
C          2.34890        2.00390        0.73760
C          1.24100        1.74890       -0.33480
C          2.46010        0.74010        1.61140
H          3.32760        2.12950        0.22440
C          1.77510        1.34740       -1.71140
C          2.03660        3.35150        1.47470
C          0.55140        3.43760        1.88870
C         -0.37040        2.87390        0.79490
O          0.31400        2.81560       -0.43980
C          2.99060        3.83060        2.60640
H          2.15170        4.10980        0.66630
H          0.30200        2.95840        2.85850
H         -1.27100        3.51540        0.70690
H         -0.74890        1.86250        1.08170
F          3.56610        0.79650        2.43500
F          1.31730        0.54620        2.36660
H          2.60250       -0.14740        0.95960
F          0.71550        1.03680       -2.54270
F          2.49070        2.39480       -2.26420
F          2.59630        0.24040       -1.60410
Br         2.60410        5.69010        3.02280
Br         2.80620        2.86130        4.28560
Br         4.84860        3.77080        2.04180
