20
TSA8_9_Me_NO2_OH
C          1.69780       -0.08220        0.13640
C          1.44460       -1.05980        1.05980
C          1.92630       -0.15940       -1.35010
H          1.73620        0.94330        0.48900
N          1.23330       -0.66800        2.42040
C          3.95830       -4.26030       -0.36680
C          3.19510       -3.16280       -0.48440
C          1.70380       -3.20220       -0.25680
O          1.36050       -2.40670        0.81610
O          5.29470       -4.20730       -0.56240
H          3.51070       -5.21480       -0.10780
H          3.66830       -2.22070       -0.73950
H          1.39390       -4.23980       -0.00870
H          1.11640       -2.93920       -1.15520
H          1.88680       -1.14790       -1.81010
H          2.92350        0.27060       -1.57880
H          1.15590        0.45980       -1.85510
O          1.00690       -1.50040        3.24630
O          1.28830        0.59530        2.78920
H          5.75430       -3.38590       -0.78880
