21
TSA8_9_CBr3_CN_CF3
C          1.09530       -1.34860        1.79710
C          2.18630       -0.64870        2.59430
C          1.58040       -2.00900        0.44300
H          0.49180       -0.47750        1.45250
C          2.06370        0.77100        2.85030
C          0.08780       -2.08240        2.75690
C         -1.21730       -2.34500        2.04290
C         -2.26180       -1.52160        2.18180
O          3.11690       -1.26760        3.08520
C          0.53790       -3.33830        3.56500
H         -0.10290       -1.30990        3.53870
H         -1.30430       -3.19730        1.37630
H         -2.19790       -0.63780        2.81080
H         -3.18260       -1.71320        1.64340
Br         0.46430       -1.38890       -1.02740
Br         3.39800       -1.50310       -0.05930
Br         1.55260       -3.93820        0.32170
N          1.95960        1.90620        3.06440
F          1.79820       -3.17940        4.10280
F         -0.34200       -3.53200        4.61450
F          0.52300       -4.49590        2.81690
