21
TSA8_9_CBr3_CN_CF3
C          1.66630        0.03810        0.07920
C          1.43730       -0.06520        1.39610
C          1.79700       -1.08910       -0.93380
H          1.75970        1.04210       -0.33660
C          1.31960        1.12600        2.21370
C         -0.59330       -3.06600        4.33220
C         -0.10740       -2.88900        3.09970
C         -0.01180       -1.52900        2.51350
O          1.23510       -1.27010        1.99840
C         -0.75470       -4.43800        4.89660
H         -0.89760       -2.20750        4.92790
H          0.16750       -3.74020        2.48320
H         -0.31240       -0.73730        3.23480
H         -0.72930       -1.54500        1.68350
Br         0.84690       -0.66550       -2.57580
Br         3.67110       -1.17230       -1.35200
Br         1.20510       -2.87190       -0.40830
N          1.24900        2.05560        2.89500
F          0.48030       -5.05290        4.96350
F         -1.29640       -4.35550        6.16500
F         -1.59950       -5.18150        4.09050
