21
TSA8_9_CBr3_CN_CF3
C          0.83970       -1.68610        1.58260
C          1.10000       -0.22400        2.14710
C          1.97950       -2.18190        0.63790
H         -0.06500       -1.72280        0.93440
C          1.46870        0.88130        1.25550
C          0.50020       -2.45790        2.91170
C         -0.87840       -1.91780        3.37220
C         -1.03410       -0.41870        3.06040
O          0.21380        0.22630        3.17460
C          0.49110       -3.99510        3.03950
H          1.26570       -2.15470        3.66350
H         -1.72060       -2.43660        2.85520
H         -1.77560        0.02420        3.75460
H         -1.44090       -0.25170        2.03430
Br         1.98570       -1.14380       -1.01550
Br         3.74350       -2.07100        1.43310
Br         1.67940       -3.98290       -0.02230
N          1.76980        1.77450        0.58640
F          1.75620       -4.51070        2.82970
F          0.13180       -4.32440        4.33940
F         -0.41350       -4.58300        2.17590
