17
TSA8_9_OH_Cl_NH2
C          2.06820       -0.08000        0.15820
C          1.22770       -1.11310        0.25770
O          2.69110        0.18700       -1.00790
H          2.25300        0.55640        1.02020
Cl         0.44160       -1.41060        1.81230
C         -0.87540       -3.50630       -3.14610
C         -0.80290       -2.65840       -2.11010
C          0.08790       -2.92340       -0.93090
O          1.01160       -1.90090       -0.83020
N         -1.71790       -3.23390       -4.25220
H         -0.28420       -4.41780       -3.15020
H         -1.39780       -1.74920       -2.11440
H          0.63500       -3.88250       -1.05390
H         -0.54860       -3.00780       -0.02650
H          3.29520        0.93840       -1.08320
H         -2.29060       -2.37780       -4.28910
H         -1.75910       -3.89810       -5.03820
