18
TSA8_9_NO2_Cl_NH2
C          1.93570       -0.06760        0.11330
C          1.19290       -0.05240        1.23450
N          2.17560       -1.24190       -0.65960
H          2.37520        0.86820       -0.22420
Cl         0.98320        1.48850        2.07480
C         -0.37530       -3.32150        4.16810
C         -0.64260       -2.65750        3.03430
C         -0.19240       -1.24200        2.82000
O          0.61850       -1.18900        1.70670
N         -0.81180       -4.65740        4.34970
H          0.18130       -2.83950        4.96700
H         -1.20180       -3.14580        2.24100
H          0.36340       -0.86270        3.70630
H         -1.08960       -0.60550        2.65910
O          2.84550       -1.16540       -1.64440
O          1.66970       -2.40790       -0.31780
H         -1.34150       -5.15050        3.61570
H         -0.59860       -5.14890        5.22940
