18
TSA8_9_NO2_Cl_NH2
C          1.57030       -1.65450        1.67530
C          1.09290       -0.18880        1.63830
N          1.38260       -2.23490        0.34820
H          2.65990       -1.68370        1.89880
Cl         1.71440        0.82860        2.97920
C          0.81570       -2.36930        2.83040
C         -0.69990       -2.17970        2.68160
C         -0.99780       -0.67950        2.57120
O         -0.31580       -0.08760        1.47420
N          1.18770       -3.77980        2.97010
H          1.11590       -1.86130        3.77510
H         -1.08790       -2.69940        1.78230
H         -0.75420       -0.15830        3.52270
H         -2.08970       -0.55180        2.42080
O          1.96240       -1.75730       -0.58040
O          0.60790       -3.27650        0.13840
H          0.77950       -4.36370        2.20860
H          0.79940       -4.14250        3.87110
