19
TSA8_9_Cl_CH2F_NH2
C          2.03020        1.98080       -0.78830
C          0.81540        1.83250       -1.67160
Cl         1.79870        0.96900        0.66940
H          2.92990        1.60370       -1.32460
C          0.94930        1.27420       -3.05870
C          2.25710        3.45910       -0.40400
C          3.46300        3.59950        0.50120
C          3.36390        4.09950        1.73720
O         -0.28400        2.16730       -1.25380
N          2.45120        4.26840       -1.60910
H          1.34670        3.82840        0.12160
H          4.43700        3.28550        0.13680
H          2.40820        4.42460        2.13750
H          4.24770        4.18610        2.36050
F         -0.28260        1.22150       -3.68730
H          1.37110        0.24880       -3.00630
H          1.63000        1.91870       -3.65290
H          3.31450        3.96170       -2.11590
H          2.56140        5.27360       -1.34090
