19
TSA8_9_I_NH2_CHF2
C          1.87050       -0.08150        0.03930
C          1.46090       -1.19420        0.67810
I          2.21640        0.07820       -2.04620
H          2.00610        0.83750        0.60180
N          1.19630       -1.14100        2.07080
C          3.36250       -4.96520        0.76540
C          3.19110       -3.65440        0.53830
C          2.25900       -3.14710       -0.53040
O          1.25910       -2.37060        0.02810
C          4.29510       -5.45550        1.83210
H          2.82250       -5.69840        0.17270
H          3.73760       -2.92840        1.13500
H          1.78010       -3.99590       -1.06540
H          2.84600       -2.57560       -1.27230
H          0.87170       -1.98460        2.56460
H          1.32010       -0.26880        2.60640
F          5.58150       -5.01830        1.57340
F          3.88820       -4.98580        3.06810
H          4.28890       -6.56540        1.84930
