19
TSA8_9_CHF2_Cl_NH2
C          1.81320       -0.06630        0.00440
C          1.06650        0.10610        1.10930
C          2.27430       -1.39560       -0.53980
H          2.11100        0.81430       -0.55760
Cl         0.62100        1.75600        1.56180
C         -0.07340       -2.47840        4.81830
C         -0.38140       -2.22010        3.53850
C         -0.18530       -0.85880        2.93910
O          0.66380       -0.95480        1.85640
N         -0.26920       -3.76870        5.37000
H          0.32930       -1.69420        5.45330
H         -0.78860       -3.00850        2.91110
H          0.24080       -0.15510        3.68860
H         -1.17090       -0.47210        2.60290
F          3.65510       -1.40940       -0.59310
F          1.84520       -2.47150        0.21640
H          1.87640       -1.51200       -1.56940
H         -0.64730       -4.54120        4.80210
H         -0.03210       -3.94260        6.35720
