24
TSA8_9_H_Et_OMe
C          2.50610        0.66310        0.55280
C          2.37210        2.02190       -0.16040
H          1.49170        0.24020        0.72970
H          3.08770       -0.05040       -0.07030
C          1.71570        1.86150       -1.53540
C          3.22610        0.87730        1.89060
C          2.47910        1.96520        2.68150
C          2.34770        3.21600        1.80420
O          1.61180        2.91130        0.63630
O          3.26510       -0.35350        2.59070
H          4.25780        1.22950        1.65110
H          1.46470        1.60500        2.96020
H          3.34500        3.64380        1.55160
H          1.79860        3.99230        2.37610
C          1.64450        3.19480       -2.27520
H          0.68940        1.45100       -1.41920
H          2.31560        1.15310       -2.14710
H          1.02900        3.92470       -1.70780
H          1.17730        3.04150       -3.27140
H          2.66460        3.60910       -2.41820
C          4.05780       -0.24460        3.75530
H          4.34250       -1.26650        4.07970
H          3.47370        0.22130        4.57780
H          5.01070        0.30410        3.58160
