25
TSA8_9_Et_OH_OMe
C          1.82000        0.06410       -0.27570
C          1.44340        0.83520       -1.33750
C          1.92850        0.38970        1.19650
H          2.07670       -0.96910       -0.49890
O          1.41510        0.25070       -2.55810
C          2.90000        4.34630        0.93070
C          2.58340        3.40090        0.02900
C          1.15020        3.12590       -0.33930
O          1.07990        2.15440       -1.31590
O          4.18110        4.64110        1.28740
H          2.10210        4.91270        1.40120
H          3.36080        2.81990       -0.45660
H          0.72250        4.06040       -0.76000
H          0.51130        2.86180        0.52590
C          3.35280        0.16120        1.68780
H          1.24780       -0.29350        1.74790
H          1.64440        1.40680        1.47300
H          3.66590       -0.88850        1.50270
H          3.40560        0.35900        2.77970
H          4.05220        0.84760        1.16690
H          1.65400       -0.67490       -2.71450
C          5.31970        4.04180        0.78460
H          6.21170        4.49970        1.25860
H          5.38310        4.19830       -0.31350
H          5.31660        2.95590        1.01430
