25
TSA8_9_Et_OH_OMe
C          2.59290        1.52240        0.16080
C          1.32170        1.44450       -0.72560
C          2.50840        0.39270        1.22700
H          3.46960        1.36050       -0.50260
O          1.22330        0.20550       -1.36290
C          2.63850        2.95520        0.78770
C          2.36840        4.05340       -0.26410
C          1.10410        3.69550       -1.04310
O          1.29960        2.46360       -1.70100
O          3.78290        3.24620        1.58190
H          1.76820        3.01230        1.47950
H          3.18910        4.13320       -1.00360
H          0.92010        4.48070       -1.80550
H          0.20480        3.67210       -0.38410
C          3.72900        0.24340        2.13290
H          2.39150       -0.58230        0.70600
H          1.60890        0.54950        1.86210
H          4.63530        0.03210        1.52850
H          3.56720       -0.61420        2.81970
H          3.88560        1.14060        2.76130
H          0.36280       -0.17070       -1.04910
C          5.00960        3.14000        0.88150
H          5.80410        3.57010        1.52450
H          5.04200        3.72900       -0.05280
H          5.28880        2.08510        0.69950
