20
TSA8_9_CBr3_OH_NH2
C          0.91360       -1.02800        1.45080
C          1.10310       -2.41940        0.80760
C          1.98770        0.02440        1.05490
H         -0.02870       -0.65470        0.98970
O          2.22170       -3.08920        1.30850
C          0.60490       -1.18590        2.97200
C         -0.17460       -2.49520        3.24150
C         -0.92430       -2.95220        1.98340
O         -0.04990       -3.25960        0.89590
N          1.80150       -1.14310        3.81600
H         -0.03200       -0.31810        3.25170
H          0.52640       -3.32630        3.47950
H         -1.66780       -2.18740        1.67140
H         -1.48610       -3.87340        2.24300
Br         1.56190        1.76010        1.81560
Br         3.80840       -0.42920        1.57180
Br         1.99160        0.24420       -0.87600
H          2.79480       -3.24660        0.51630
H          2.40700       -1.97710        3.64400
H          1.51530       -1.14710        4.82280
