23
TSA8_9_CH2F_CHF2_CF3
C          2.37670        0.42270       -2.10090
C          0.83930        0.58330       -1.82400
C          3.15570        0.72430       -0.80540
H          2.59800       -0.64100       -2.34390
C          0.05380       -0.67170       -2.21010
C          2.74580        1.31190       -3.32030
C          2.33110        2.77640       -3.07120
C          1.03740        2.85370       -2.24620
O          0.24900        1.70840       -2.47500
C          4.19400        1.21330       -3.83460
H          2.10200        0.93610       -4.14770
H          3.10320        3.38650       -2.55450
H          0.47830        3.77010       -2.52560
H          1.25020        2.95630       -1.15790
F          4.49160        0.39840       -0.93750
H          2.75090        0.09320        0.01470
H          3.06590        1.78410       -0.49720
F         -1.27460       -0.51420       -1.86090
F          0.14180       -0.89450       -3.57320
H          0.45820       -1.55250       -1.66840
F          4.52610       -0.11000       -4.06260
F          4.30300        1.90470       -5.02840
F          5.09150        1.76240       -2.93790
