21
TSA8_9_Cl_Et_OH
C          2.96860       -0.92380       -1.00770
C          1.54300       -1.35600       -0.74070
Cl         3.18570        0.75120       -0.41480
H          3.63440       -1.56920       -0.39530
C          1.24730       -2.54220        0.14240
C          3.45150       -1.08200       -2.47990
C          2.76250       -0.20450       -3.51130
C          1.50340       -0.39130       -3.91760
O          0.61010       -0.70700       -1.18760
O          4.84010       -0.85800       -2.53530
H          3.30200       -2.13980       -2.78870
H          3.33200        0.59060       -3.98550
H          0.89330       -1.19720       -3.52910
H          1.07930        0.25970       -4.67550
C          1.79140       -3.83880       -0.45310
H          0.14750       -2.65150        0.26770
H          1.69650       -2.37350        1.14440
H          1.33350       -4.02560       -1.44780
H          1.54270       -4.68690        0.21910
H          2.89490       -3.79520       -0.56350
H          5.01100        0.10130       -2.34530
