21
TSA8_9_Cl_Et_OH
C          1.90140       -0.21460       -0.04120
C          1.46710       -1.34940       -0.64880
Cl         2.29000        1.32120       -0.80810
H          2.01490       -0.20650        1.03850
C          1.14920       -2.55280        0.20750
C          3.85400       -1.39140       -4.20910
C          3.23480       -0.85260       -3.14870
C          1.73160       -0.76530       -3.06240
O          1.27270       -1.50920       -1.99330
O          5.20230       -1.47000       -4.26550
H          3.27760       -1.77790       -5.04370
H          3.83130       -0.47600       -2.32410
H          1.27560       -1.18650       -3.98380
H          1.38350        0.28260       -3.00030
C          2.03070       -3.73570       -0.18440
H          0.08230       -2.82550        0.06250
H          1.30550       -2.34440        1.28890
H          1.86810       -4.00780       -1.24920
H          1.77920       -4.61360        0.44640
H          3.10190       -3.48150       -0.03360
H          5.77170       -1.14830       -3.55170
