21
TSA8_9_Cl_Et_OH
C          3.01640       -0.90660       -1.06460
C          1.50840       -1.31430       -1.03510
Cl         3.13860        0.86550       -0.84980
H          3.57060       -1.36000       -0.21480
C          1.19350       -2.44130       -0.03890
C          3.62610       -1.35650       -2.40520
C          2.84010       -0.78130       -3.59930
C          1.34790       -0.64630       -3.25010
O          0.97390       -1.63900       -2.31920
O          5.00150       -1.08570       -2.49970
H          3.50390       -2.45970       -2.45140
H          3.19780        0.21760       -3.93090
H          0.74110       -0.73140       -4.17450
H          1.12640        0.36490       -2.83480
C          1.86590       -3.76850       -0.39270
H          0.09320       -2.59320       -0.02070
H          1.51180       -2.12930        0.97890
H          1.54750       -4.11020       -1.40010
H          1.57380       -4.53860        0.35190
H          2.97090       -3.67110       -0.37130
H          5.11340       -0.10100       -2.53750
