19
TSA8_9_NH2_CH2F_Cl
C          2.91820       -0.56460       -1.07380
C          1.46020       -0.97240       -1.17910
N          3.06000        0.58870       -0.18080
H          3.45740       -1.42220       -0.61240
C          1.03760       -2.34700       -0.74160
C          3.63570       -0.30470       -2.42860
C          3.16840        0.90990       -3.20420
C          2.00050        0.96770       -3.84960
O          0.61820       -0.17980       -1.57180
Cl         5.38240       -0.09900       -2.09240
H          3.55380       -1.20250       -3.07920
H          3.82860        1.76990       -3.28270
H          1.31350        0.13110       -3.85860
H          1.73510        1.86250       -4.40400
H          2.53090        1.40760       -0.56040
H          2.66990        0.35150        0.76070
F         -0.32800       -2.51610       -0.89440
H          1.30110       -2.49090        0.32710
H          1.56560       -3.11010       -1.35070
