18
TSA8_9_OH_CN_NH2
C          1.63100       -0.01330        0.06590
C          1.57630       -0.96350        1.02400
O          1.65590       -0.33710       -1.24240
H          1.54390        1.03660        0.33410
C          1.30570       -0.57570        2.38470
C          1.29600       -4.73190       -1.63500
C          1.35850       -3.44170       -1.29320
C          0.67280       -2.90560       -0.08100
O          1.59630       -2.29330        0.74740
N          1.96500       -5.19430       -2.79400
H          0.73110       -5.43530       -1.02920
H          1.91580       -2.74850       -1.91380
H          0.13710       -3.69850        0.48520
H         -0.10080       -2.19660       -0.41720
H          1.35790        0.31220       -1.89820
N          1.08830       -0.28050        3.48040
H          2.51360       -4.54690       -3.37920
H          1.92330       -6.18950       -3.05260
