18
TSA8_9_OH_CN_NH2
C          1.95860       -1.74860       -0.58010
C          1.81450       -1.73200        0.96720
O          3.12790       -1.11710       -1.02270
H          1.07300       -1.22470       -1.02630
C          1.66190       -0.41750        1.59290
C          1.93420       -3.25520       -0.89070
C          0.46570       -3.66120       -0.74120
C         -0.13150       -3.01850        0.54150
O          0.87340       -2.68040        1.49200
N          2.51240       -3.65290       -2.17320
H          2.53020       -3.80120       -0.11930
H         -0.11800       -3.25710       -1.60880
H         -0.84150       -3.74680        0.97920
H         -0.72080       -2.10190        0.30540
H          2.88790       -0.70800       -1.90360
N          1.54270        0.60330        2.12350
H          1.98410       -3.28100       -2.98860
H          2.52330       -4.70250       -2.20920
