22
TSA8_9_CH2F_CF3_NH2
C          2.71510        0.80960        0.70750
C          1.32120        1.38990        0.55370
C          2.66310       -0.70790        0.43420
H          3.35750        1.26950       -0.07630
C          1.04040        2.40430       -0.52190
C          3.31950        1.20950        2.08770
C          2.61930        0.54120        3.25550
C          1.96590        1.23680        4.19040
O          0.42030        1.03310        1.29980
N          4.75470        0.92090        2.13940
H          3.21280        2.31680        2.16550
H          2.65530       -0.54070        3.34460
H          1.90410        2.31920        4.14700
H          1.48400        0.71550        5.01160
F          3.92550       -1.26860        0.43290
H          2.21800       -0.88520       -0.56840
H          2.02850       -1.23010        1.18080
F         -0.28360        2.80470       -0.48290
F          1.84900        3.51090       -0.33770
F          1.30430        1.84970       -1.76070
H          4.92900       -0.10530        2.21670
H          5.16280        1.37270        2.99010
