26
TSA8_9_Et_Et_H
C          2.47210       -0.90710       -0.63620
C          1.16730       -1.59870       -0.24770
C          2.21650        0.56040       -1.07270
H          3.09270       -0.84680        0.28540
C          1.19330       -2.96910        0.39810
C          3.26590       -1.76150       -1.66730
C          2.52760       -2.08370       -2.94630
C          2.25040       -1.17960       -3.89020
O          0.09620       -1.03450       -0.43170
H          3.50370       -2.72900       -1.17810
H          4.24760       -1.30400       -1.90610
H          2.23260       -3.11490       -3.12040
H          1.72870       -1.48490       -4.79130
H          2.54960       -0.14400       -3.79690
C          3.50090        1.34710       -1.34170
H          1.68580        1.08000       -0.24420
H          1.55340        0.60650       -1.95910
H          4.15050        1.34160       -0.44080
H          3.24310        2.39930       -1.58540
H          4.06200        0.92830       -2.20050
C         -0.19850       -3.49110        0.75670
H          1.79870       -2.91030        1.32780
H          1.66450       -3.70050       -0.28970
H         -0.69930       -2.80050        1.46840
H         -0.10930       -4.48930        1.23520
H         -0.81960       -3.59080       -0.15900
