25
TSA8_9_Et_NO2_Me
C          1.98460        1.03670       -1.84290
C          0.71720        0.47750       -2.48460
C          1.72600        1.09200       -0.31020
H          2.82530        0.33190       -2.01830
N          0.71970       -0.70830       -3.15800
C          2.34380        2.40870       -2.50730
C          3.64800        2.97350       -1.99710
C          3.72240        4.17830       -1.42070
O         -0.32390        1.11550       -2.38760
C          2.48530        2.27160       -4.03470
H          1.51480        3.12630       -2.31170
H          4.55700        2.38980       -2.11440
H          2.83920        4.79560       -1.29010
H          4.67930        4.55320       -1.07260
C          2.95840        1.32420        0.56560
H          1.33530        0.09640       -0.00050
H          0.94730        1.85070       -0.07630
H          3.72910        0.55260        0.35480
H          2.66290        1.24170        1.63300
H          3.39080        2.32890        0.43630
O         -0.28830       -1.12020       -3.64970
O          1.82300       -1.41560       -3.27840
H          1.53820        1.92630       -4.49880
H          3.29170        1.55130       -4.29260
H          2.72930        3.25820       -4.48520
