26
TSA8_9_Et_Et_I
C          2.49860       -1.08000       -1.09940
C          1.22690       -1.87510       -0.86200
C          2.18570        0.42500       -0.92060
H          3.22890       -1.33880       -0.30010
C          1.13910       -2.82130        0.31300
C          3.16960       -1.47470       -2.45420
C          2.30410       -1.31910       -3.68810
C          1.91630       -0.13830       -4.17810
O          0.27450       -1.73370       -1.61720
I          3.81200       -3.52790       -2.34600
H          4.11080       -0.90650       -2.60050
H          1.99900       -2.21120       -4.22770
H          1.30530       -0.10340       -5.07440
H          2.20780        0.79730       -3.72020
C          3.42690        1.31560       -1.00830
H          1.75050        0.56870        0.09340
H          1.42280        0.76740       -1.64730
H          4.17680        1.00570       -0.25030
H          3.13840        2.36950       -0.80980
H          3.88630        1.27330       -2.01600
C         -0.21130       -3.53200        0.40750
H          1.30550       -2.24580        1.24890
H          1.93680       -3.58770        0.22200
H         -1.02960       -2.79070        0.52980
H         -0.21400       -4.21150        1.28580
H         -0.39420       -4.13420       -0.50800
