26
TSA8_9_Et_Et_I
C          1.84940       -0.23080        0.01820
C          1.43860       -1.30960       -0.68620
C          1.89960        1.17580       -0.52420
H          2.14330       -0.35640        1.05720
C          1.35840       -2.66040       -0.01210
C          3.57270       -2.38720       -4.32920
C          2.68440       -2.32290       -3.33400
C          1.93690       -1.04950       -3.04990
O          1.05880       -1.20490       -1.98970
I          4.60640       -4.18420       -4.72570
H          3.77630       -1.51980       -4.94990
H          2.50220       -3.20750       -2.73640
H          1.34890       -0.78690       -3.95440
H          2.65750       -0.22950       -2.84990
C          3.32260        1.71820       -0.47240
H          1.24240        1.81630        0.10190
H          1.52230        1.23980       -1.56470
H          3.69970        1.71440        0.57280
H          3.33710        2.76200       -0.85120
H          3.99400        1.09920       -1.10460
C         -0.06960       -3.19440       -0.04140
H          1.68930       -2.60360        1.04830
H          2.02660       -3.37650       -0.53030
H         -0.74900       -2.50300        0.50040
H         -0.10540       -4.18810        0.45260
H         -0.42140       -3.30680       -1.08910
