26
TSA8_9_Et_Et_I
C          2.63870       -0.71550       -1.01540
C          1.23990       -1.36980       -0.91540
C          2.45390        0.82650       -1.02060
H          3.21790       -0.92320       -0.08890
C          1.23940       -2.82380       -0.41190
C          3.40210       -1.26530       -2.25480
C          2.46070       -1.81760       -3.33690
C          1.11540       -1.09190       -3.31440
O          0.41650       -1.19070       -2.07210
I          4.78180       -2.81970       -1.70850
H          4.04080       -0.47710       -2.69400
H          2.23890       -2.88880       -3.16090
H          0.48190       -1.55160       -4.10160
H          1.24870       -0.02960       -3.59740
C          3.77060        1.59800       -0.88210
H          1.83470        1.10120       -0.13760
H          1.92170        1.18280       -1.92180
H          4.29800        1.29450        0.04710
H          3.55270        2.68530       -0.82160
H          4.44210        1.43980       -1.74800
C         -0.18000       -3.30530       -0.13010
H          1.81670       -2.87310        0.53650
H          1.71310       -3.51160       -1.13660
H         -0.66510       -2.64980        0.62440
H         -0.14940       -4.34240        0.26570
H         -0.78510       -3.30160       -1.06140
