15
TSA8_9_H_H_CN
C          0.60930       -1.76270        0.21180
C          1.90930       -1.93620        0.93880
H          0.65150       -1.78150       -0.89660
H          0.45400       -0.68540        0.41160
H          2.83890       -1.91010        0.38620
C         -0.58160       -2.55000        0.82430
C         -1.57180       -1.51490        1.26100
C         -1.39640       -0.94070        2.44860
O          1.94650       -1.87890        2.15960
C         -1.24060       -3.58660        0.00460
H         -0.24920       -3.12100        1.74230
H         -2.25860       -1.07280        0.53750
H         -0.63070       -1.32290        3.12350
H         -1.96270       -0.06710        2.72930
N         -1.82480       -4.36440       -0.63610
