20
TSA8_9_CF3_CBr3_H
C          1.75740       -0.10660        0.08900
C          1.45570       -1.31060        0.65060
C          1.88410        0.23010       -1.37900
H          1.90610        0.75520        0.72430
C          1.25550       -1.46530        2.15450
C          3.62420       -5.05480       -1.04840
C          2.68760       -4.34380       -0.41490
C          2.28200       -2.98860       -0.91270
O          1.31430       -2.45620       -0.07500
H          3.90950       -6.03250       -0.67490
H          4.11200       -4.66680       -1.93770
H          2.22100       -4.75760        0.47390
H          1.86960       -3.10220       -1.93630
H          3.18540       -2.33850       -0.94010
F          3.19260        0.57460       -1.65800
F          1.48820       -0.78530       -2.22180
F          1.07410        1.31840       -1.64400
Br         1.43770        0.14550        3.24010
Br        -0.52680       -2.15800        2.47200
Br         2.53420       -2.74930        2.84190
