27
TSA8_9_OMe_Et_CH2F
C          2.29460       -1.15300       -0.75520
C          1.19080       -1.38890        0.25400
O          1.95840       -0.03730       -1.56710
H          3.24590       -1.00160       -0.18540
C          1.51220       -1.35360        1.73010
C          2.53170       -2.40050       -1.64470
C          1.34390       -2.68200       -2.54250
C          0.65240       -3.82290       -2.47190
O          0.04880       -1.60300       -0.13060
C          3.79210       -2.23480       -2.50820
H          2.71770       -3.26770       -0.97020
H          1.04380       -1.93410       -3.27140
H          0.91650       -4.59830       -1.75950
H         -0.19120       -3.98490       -3.13510
C          2.64820        1.11780       -1.14690
H          3.73770        1.01970       -1.34980
H          2.44970        1.34230       -0.07520
H          2.27680        1.98090       -1.73580
C          0.30170       -1.63240        2.62080
H          1.92020       -0.35170        1.98320
H          2.28950       -2.11840        1.94380
H         -0.48930       -0.87150        2.44950
H          0.60900       -1.59140        3.68720
H         -0.10670       -2.64360        2.40900
F          3.66720       -1.17350       -3.38830
H          3.97260       -3.16280       -3.09220
H          4.67730       -2.06240       -1.85920
