27
TSA8_9_OMe_Et_CH2F
C          2.41080       -1.17920       -0.90740
C          1.17420       -1.44680        0.02210
O          2.02910       -0.35310       -1.99490
H          3.24870       -0.71220       -0.33140
C          1.61050       -1.59460        1.48770
C          2.89660       -2.53610       -1.44690
C          1.76680       -3.22110       -2.24580
C          0.38140       -2.78930       -1.73530
O          0.40530       -2.60040       -0.33990
C          4.19080       -2.43930       -2.26660
H          3.11410       -3.17450       -0.56290
H          1.79240       -2.99620       -3.33450
H         -0.36560       -3.56390       -2.00490
H          0.04020       -1.85230       -2.23250
C          2.09340        1.00780       -1.62620
H          3.14800        1.35830       -1.62660
H          1.60670        1.20360       -0.64380
H          1.53380        1.60110       -2.37790
C          0.40440       -1.70400        2.41770
H          2.19280       -0.69710        1.78880
H          2.25200       -2.49340        1.60830
H         -0.23560       -0.80100        2.32210
H          0.75250       -1.78470        3.46900
H         -0.19760       -2.60570        2.17750
F          4.01150       -1.65850       -3.39520
H          4.51370       -3.45520       -2.58050
H          4.99760       -1.99430       -1.64650
