22
TSA8_9_Et_NO2_Br
C          2.54850        1.26810       -0.21420
C          1.45970        1.08100       -1.26910
C          2.28820        0.25120        0.93180
H          3.51630        1.00390       -0.68790
N          1.76210        0.72720       -2.55240
C          2.69680        2.76210        0.22980
C          1.66800        3.27170        1.21820
C          0.39420        3.52520        0.90770
O          0.28770        1.21830       -0.95020
Br         4.47290        3.08530        0.97330
H          2.69850        3.41540       -0.67000
H          1.98730        3.48400        2.23460
H          0.00860        3.39150       -0.09250
H         -0.27820        3.90640        1.66970
C          3.36650        0.18580        2.00950
H          2.22140       -0.76320        0.47920
H          1.31370        0.46960        1.42120
H          4.35390       -0.04230        1.55520
H          3.11330       -0.62000        2.73030
H          3.41440        1.13250        2.58160
O          0.88780        0.57190       -3.35180
O          3.00990        0.55460       -2.93360
