22
TSA8_9_Et_NO2_Br
C          1.88910        0.09200       -0.19540
C          1.44690        0.99150       -1.12800
C          1.91350        0.15280        1.31510
H          2.28250       -0.85050       -0.56350
N          1.53400        0.62980       -2.51130
C          2.42700        4.81320        0.71210
C          2.12660        3.50980        0.69240
C          0.77460        3.01260        0.24540
O          0.89450        2.22190       -0.87880
Br         4.15700        5.39800        1.27730
H          1.70140        5.56140        0.40780
H          2.88290        2.80010        1.00070
H          0.14030        3.88130       -0.03300
H          0.21000        2.49320        1.04110
C          3.33640       -0.05700        1.82770
H          1.27830       -0.67270        1.70140
H          1.53360        1.07720        1.75360
H          3.73430       -1.03410        1.47840
H          3.33700       -0.05490        2.93830
H          4.00540        0.75270        1.46870
O          1.14560        1.39010       -3.34630
O          2.03520       -0.52810       -2.88960
