23
TSA8_9_CBr3_CCl3_CHF2
C          2.15700       -1.94830       -0.66820
C          0.82130       -2.44750       -0.10890
C          1.99980       -0.46480       -1.19370
H          2.88170       -1.93350        0.17490
C          0.63480       -2.84140        1.36030
C          2.69160       -2.93620       -1.78510
C          4.05750       -2.53150       -2.29180
C          4.28070       -2.22590       -3.57450
O         -0.13150       -2.53680       -0.87050
C          2.81750       -4.40790       -1.33930
H          1.96860       -2.93630       -2.63010
H          4.88890       -2.49690       -1.59270
H          3.48030       -2.25180       -4.30720
H          5.27760       -1.94470       -3.89740
Br         1.14180        0.71390        0.08920
Br         3.69980        0.41880       -1.53410
Br         0.93300       -0.34160       -2.82000
Cl         1.70000       -4.18430        1.83440
Cl         0.98480       -1.49400        2.46810
Cl        -1.04410       -3.36510        1.68050
F          3.69660       -4.53280       -0.27770
F          1.58910       -4.94780       -1.00650
H          3.21060       -5.01320       -2.18550
