23
TSA8_9_CBr3_CCl3_CHF2
C          1.57890       -0.07920        0.00780
C          1.45400       -1.43600        0.12220
C          1.83230        0.76080       -1.23460
H          1.41610        0.51530        0.89580
C          1.09690       -2.09410        1.45140
C          3.06720       -4.66490       -2.83280
C          3.10560       -3.84270       -1.77390
C          2.58400       -2.43730       -1.82990
O          1.55340       -2.30510       -0.92570
C          3.61450       -6.05870       -2.74700
H          2.63960       -4.32940       -3.77410
H          3.52980       -4.19270       -0.83780
H          2.21160       -2.19000       -2.84640
H          3.43540       -1.79390       -1.56640
Br         1.45390        2.61670       -0.80530
Br         3.68200        0.77240       -1.82120
Br         0.63990        0.29160       -2.69160
Cl         2.36190       -3.27900        1.86520
Cl         0.91930       -1.00270        2.86180
Cl        -0.44530       -2.96740        1.26290
F          4.96490       -6.01490       -2.45050
F          2.95040       -6.77000       -1.76400
H          3.47780       -6.57410       -3.72040
