23
TSA8_9_CH2F_Me_CHF2
C          2.10730        1.89420       -1.02490
C          0.80940        1.67840       -1.77310
C          1.96570        1.23370        0.36300
H          2.91910        1.36490       -1.57320
C          0.79010        0.85280       -3.02460
C          2.47430        3.41100       -0.92510
C          3.81360        3.58380       -0.24060
C          3.94710        4.25500        0.90730
O         -0.23100        2.16760       -1.35590
C          2.56170        4.10620       -2.30180
H          1.68130        3.93020       -0.33980
H          4.69820        3.14660       -0.69660
H          3.09090        4.70600        1.39890
H          4.92630        4.35360        1.36470
F          3.15810        1.25610        1.06340
H          1.67340        0.16800        0.24000
H          1.18180        1.74530        0.96180
H          1.46130        1.30430       -3.78420
H         -0.23790        0.79290       -3.44330
H          1.14080       -0.17600       -2.79430
F          3.49710        3.48450       -3.11130
F          1.33680        4.11370       -2.94410
H          2.86310        5.16700       -2.15950
