23
TSA8_9_CH2F_Me_CHF2
C          1.70860        0.10780       -0.08220
C          1.43430        0.89870       -1.15080
C          1.93760        0.55840        1.33500
H          1.74030       -0.96860       -0.22810
C          1.14120        0.26400       -2.48170
C          2.69800        5.36670       -1.47510
C          2.83910        4.03640       -1.56690
C          2.30610        3.10280       -0.52000
O          1.38590        2.25940       -1.11230
C          3.23390        6.27840       -2.53790
H          2.18710        5.80580       -0.62250
H          3.35150        3.60570       -2.42340
H          1.80850        3.66640        0.29900
H          3.17020        2.53930       -0.10650
F          3.20780        0.18970        1.73540
H          1.19460        0.05350        1.98670
H          1.80510        1.64170        1.49270
H          1.88110        0.62280       -3.22740
H          0.12450        0.56060       -2.81340
H          1.18850       -0.84550       -2.44600
F          4.60360        6.12160       -2.64940
F          2.63670        5.99010       -3.75180
H          3.01260        7.33260       -2.26990
