23
TSA8_9_CH2F_Me_CHF2
C          2.39680        1.92070       -1.40070
C          0.91290        1.66060       -0.95290
C          3.37080        1.29740       -0.37820
H          2.58880        1.37700       -2.35380
C          0.07460        1.14440       -2.12200
C          2.55970        3.44490       -1.63220
C          2.21190        4.22440       -0.34870
C          1.09580        3.52380        0.44350
O          0.24820        2.81280       -0.42760
C          3.89500        3.91400       -2.23350
H          1.78190        3.70580       -2.38510
H          3.07300        4.37150        0.33870
H          0.51730        4.28610        1.00460
H          1.49880        2.83460        1.21710
F          4.66970        1.32330       -0.84710
H          3.10310        0.22910       -0.23090
H          3.33520        1.79460        0.60920
H          0.03040        1.90490       -2.93120
H         -0.95740        0.92780       -1.77530
H          0.51170        0.20620       -2.52440
F          4.94540        3.75490       -1.35010
F          4.16230        3.22400       -3.40230
H          3.82080        4.99610       -2.47570
