24
TSA8_9_OMe_Me_CH2F
C          1.59860       -0.14890        0.12430
C          1.31970       -0.21280       -1.18420
O          1.69960        1.06380        0.71900
H          1.70880       -1.05720        0.71290
C          1.16000       -1.53870       -1.88400
C          0.31650        3.67790       -2.13960
C         -0.43730        2.56990       -2.21120
C          0.15140        1.28150       -2.70580
O          1.18840        0.95510       -1.85780
C         -0.22600        4.96560       -1.60240
H          1.35380        3.64810       -2.46370
H         -1.47450        2.59200       -1.88720
H          0.53080        1.41190       -3.74130
H         -0.63880        0.49950       -2.70430
C          1.81500        1.21960        2.07920
H          1.86910        2.30300        2.31370
H          2.73450        0.71930        2.44800
H          0.92150        0.79320        2.58440
H          1.91330       -1.61320       -2.69670
H          0.14690       -1.63060       -2.32260
H          1.31360       -2.39230       -1.18920
F         -1.30270        5.38470       -2.36110
H          0.56630        5.74320       -1.63370
H         -0.54530        4.82610       -0.54780
