24
TSA8_9_OMe_Me_CH2F
C          1.01940        1.45270       -0.76860
C          1.56950        0.39250       -1.76770
O          1.99670        1.67640        0.23590
H          0.02850        1.11600       -0.36860
C          1.51180       -1.03110       -1.22080
C          0.76490        2.74130       -1.56810
C         -0.26920        2.45880       -2.68330
C         -0.26130        0.97930       -3.10760
O          1.05210        0.46530       -3.09800
C          0.31150        3.91390       -0.68860
H          1.72680        3.02130       -2.05360
H         -1.31370        2.69580       -2.38340
H         -0.70220        0.88550       -4.12110
H         -0.90510        0.36960       -2.43220
C          1.47940        1.38660        1.51570
H          0.66700        2.09640        1.78500
H          2.29310        1.51250        2.25880
H          1.13590        0.33080        1.58500
H          2.00810       -1.72240       -1.93310
H          0.45630       -1.34790       -1.08420
H          2.04160       -1.09050       -0.24800
F          0.13330        5.04750       -1.46200
H          1.07850        4.13440        0.08320
H         -0.64460        3.66850       -0.17820
