21
TSA8_9_Me_NO2_NH2
C          1.86520       -0.09780       -0.02560
C          1.51670       -1.31910       -0.53440
C          1.91810        1.26310       -0.66800
H          2.14610       -0.05220        1.02160
N          1.53090       -2.44890        0.34400
C          3.21190       -1.14360       -4.47930
C          2.66580       -0.63000       -3.36760
C          1.22140       -0.87370       -3.00520
O          1.13950       -1.58400       -1.82630
N          4.57590       -0.91790       -4.78990
H          2.61440       -1.74830       -5.15560
H          3.28420       -0.03520       -2.70400
H          0.73940       -1.49070       -3.79350
H          0.61710        0.05010       -2.96270
H          1.63320        1.32930       -1.71890
H          2.95180        1.65740       -0.58160
H          1.23930        1.94000       -0.10850
O          1.22980       -3.52610       -0.07420
O          1.88070       -2.33280        1.60880
H          5.17890       -0.35660       -4.17020
H          4.98020       -1.32900       -5.64310
