21
TSA8_9_Me_NO2_NH2
C          2.72670       -0.69040       -1.31480
C          1.30730       -1.27120       -0.99380
C          2.71080        0.84070       -1.16570
H          3.47050       -1.06520       -0.57670
N          1.39870       -2.30340        0.02160
C          3.14210       -1.17450       -2.71900
C          2.09920       -0.75790       -3.77290
C          0.67680       -0.83750       -3.19060
O          0.62780       -1.78310       -2.14510
N          4.49280       -0.75510       -3.09310
H          3.13300       -2.28760       -2.67130
H          2.25020        0.26960       -4.17080
H         -0.03070       -1.11750       -3.99780
H          0.32810        0.15260       -2.81930
H          2.00580        1.32660       -1.86860
H          3.72160        1.26340       -1.33760
H          2.40760        1.11030       -0.13150
O          1.01800       -3.41350       -0.19970
O          1.87160       -2.00840        1.21340
H          4.52990        0.27730       -3.24260
H          4.75730       -1.22100       -3.99130
