21
TSA8_9_CN_CBr3_CCl3
C          2.84520       -0.90420       -1.47180
C          1.44170       -1.41060       -0.99210
C          2.84150        0.56630       -1.34830
H          3.65050       -1.28300       -0.80790
C          1.52290       -2.48860        0.10800
C          3.05000       -1.40840       -2.92780
C          1.93680       -0.81920       -3.81030
C          0.57820       -0.91790       -3.10000
O          0.62200       -1.88090       -2.06520
C          4.45040       -1.28870       -3.57610
H          2.87730       -2.50530       -2.88930
H          2.11760        0.24580       -4.08480
H         -0.17390       -1.21600       -3.85890
H          0.25160        0.06670       -2.69340
N          2.84480        1.71790       -1.25380
Br         2.36400       -1.77810        1.70670
Br        -0.26380       -3.05200        0.60550
Br         2.50720       -4.06100       -0.47350
Cl         4.41380       -2.08910       -5.17810
Cl         4.99620        0.39190       -3.80890
Cl         5.66410       -2.15750       -2.59740
