24
TSA8_9_OMe_CF3_CF3
C          1.48840       -0.00270       -0.08640
C          1.36230        1.32390        0.07890
O          1.52540       -0.80990        1.00120
H          1.54280       -0.43770       -1.08000
C          1.29920        2.28020       -1.09120
C          0.76000        1.42760        4.17320
C         -0.12540        1.44870        3.16340
C          0.13420        2.26180        1.92910
O          1.29950        1.81290        1.34070
C          0.56670        0.61520        5.42400
H          1.66930        2.01830        4.09480
H         -1.04220        0.86850        3.21580
H          0.24120        3.33360        2.19850
H         -0.73360        2.15350        1.24020
C          1.57290       -2.18050        0.90410
H          1.58970       -2.61520        1.92470
H          2.48900       -2.49500        0.36130
H          0.67180       -2.55500        0.37190
F          0.10740        2.97920       -1.06080
F          2.34690        3.17690       -0.99560
F          1.39180        1.62070       -2.30530
F         -0.61630       -0.10380        5.39790
F          1.62190       -0.26810        5.55310
F          0.55200        1.46180        6.51600
