24
TSA8_9_OMe_CF3_CF3
C          1.18310        0.51290        1.69640
C          1.63850        1.74230        0.84840
O          2.15890       -0.50890        1.56350
H          0.15670        0.19990        1.37800
C          1.46750        1.56990       -0.66440
C          1.08100        0.99080        3.16010
C          0.03720        2.12940        3.25240
C         -0.09310        2.89650        1.92550
O          1.16250        3.01490        1.29210
C          0.75920       -0.12330        4.17400
H          2.07140        1.42090        3.43240
H         -0.98420        1.77350        3.51100
H         -0.51810        3.90180        2.12250
H         -0.81040        2.38680        1.24280
C          1.57340       -1.71880        1.13000
H          0.93000       -2.15490        1.92320
H          2.38520       -2.44360        0.91870
H          1.00700       -1.58650        0.18110
F          0.12640        1.47780       -0.99000
F          2.01390        2.66130       -1.31320
F          2.11980        0.43130       -1.09710
F         -0.44620       -0.72910        3.86290
F          1.75820       -1.07970        4.17560
F          0.67580        0.41370        5.44660
