24
TSA8_9_OMe_CH2F_CH2F
C          1.17840        0.13730        1.51920
C          1.64630        1.25780        0.61660
O          2.27250       -0.74130        1.73650
H          0.30300       -0.37070        1.03960
C          0.98270        1.50440       -0.70600
C          0.68690        0.68510        2.88110
C         -0.48740        1.61900        2.67820
C         -0.44480        2.90330        3.04420
O          2.58090        1.96560        0.96120
C          0.25840       -0.46110        3.81000
H          1.52950        1.22260        3.37320
H         -1.39330        1.23380        2.21890
H          0.44140        3.32810        3.50530
H         -1.30760        3.54080        2.88100
C          2.09480       -1.94870        1.02890
H          1.24660       -2.53080        1.45210
H          3.01130       -2.56260        1.14530
H          1.96000       -1.76400       -0.06030
F         -0.35360        1.80230       -0.51480
H          1.06960        0.59760       -1.34060
H          1.46730        2.35480       -1.23290
F         -0.15290        0.04300        5.03180
H          1.10980       -1.15100        3.99010
H         -0.57560       -1.04060        3.35830
