16
TSA8_9_F_Cl_NH2
C          2.12590       -0.39520       -0.32230
C          1.32040       -0.81520       -1.31560
F          2.93780        0.68720       -0.43320
H          2.13110       -0.93120        0.62160
Cl         0.31040       -2.22210       -1.02350
C          3.65590       -0.80900       -4.09400
C          3.42770        0.25040       -3.30490
C          2.03110        0.76390       -3.08200
O          1.22510       -0.22230       -2.54100
N          4.96990       -1.29560       -4.30260
H          2.82510       -1.30960       -4.58390
H          4.25750        0.75280       -2.81540
H          1.60900        1.06430       -4.06430
H          2.03170        1.66510       -2.43320
H          5.78200       -0.84870       -3.85260
H          5.12070       -2.11270       -4.91120
