24
TSA8_9_CHF2_CCl3_OMe
C          2.89790       -0.32620       -1.65770
C          1.60730       -1.00940       -2.08900
C          2.59030        0.75140       -0.59650
H          3.53650       -1.07430       -1.13510
C          1.34230       -2.46670       -1.77000
C          3.74060        0.15300       -2.88390
C          3.05730        1.16610       -3.78560
C          2.86210        2.44230       -3.44470
O          0.76320       -0.35930       -2.69160
O          4.05010       -0.99960       -3.65270
H          4.67370        0.61220       -2.47630
H          2.75370        0.85350       -4.78100
H          2.38790        3.12130       -4.14630
H          3.18810        2.83050       -2.48720
F          3.75310        1.38240       -0.19280
F          1.67770        1.68880       -1.04250
H          2.13960        0.25960        0.29190
Cl         2.58350       -3.50610       -2.51430
Cl         1.36510       -2.71670       -0.00570
Cl        -0.25210       -2.99730       -2.37840
C          5.27440       -0.83530       -4.33810
H          5.47690       -1.75930       -4.91740
H          6.12300       -0.70600       -3.63050
H          5.22010        0.00330       -5.06630
