20
TSA8_9_CH2F_Br_CCl3
C          1.50200       -1.30870        1.86060
C          0.95580       -0.10370        1.12060
C          1.67520       -2.46390        0.85660
H          2.51940       -1.02470        2.20400
Br         1.99600        1.49640        0.99450
C          0.62450       -1.60410        3.13260
C         -0.82070       -1.89600        2.76390
C         -1.82280       -1.09140        3.13420
O         -0.13870       -0.13940        0.58000
C          1.14990       -2.70370        4.10760
H          0.66380       -0.65590        3.71800
H         -1.05540       -2.78270        2.18350
H         -1.63810       -0.19340        3.71580
H         -2.84290       -1.33140        2.85320
F          2.44680       -3.47930        1.38310
H          2.22640       -2.09190       -0.03430
H          0.69600       -2.85800        0.51400
Cl         0.23060       -2.61900        5.63830
Cl         0.95140       -4.37740        3.50680
Cl         2.86460       -2.43880        4.52850
