20
TSA8_9_H_Br_Et
C          3.52470        0.22440        1.49480
C          2.02460        0.60780        1.35640
H          3.68030       -0.79720        1.08760
H          4.15270        0.92290        0.90090
Br         1.84800        2.54140        1.33880
C          3.88830        0.22840        2.98520
C          3.00110       -0.79160        3.73680
C          1.68780       -1.06320        2.97940
O          1.18120        0.12070        2.40300
C          5.39820        0.05090        3.26310
H          3.61550        1.23400        3.37530
H          3.47740       -1.77820        3.90330
H          0.94380       -1.49200        3.68210
H          1.83900       -1.82730        2.18240
C          6.00880       -1.24640        2.72220
H          5.57070        0.10140        4.36010
H          5.94200        0.90020        2.79470
H          5.54330       -2.14180        3.17890
H          7.09230       -1.26590        2.96460
H          5.90550       -1.30110        1.61900
