20
TSA8_9_Cl_Et_Br
C          2.17690       -1.33200       -1.30610
C          0.93270       -1.74120       -0.54980
Cl         2.57950        0.34940       -0.84170
H          3.03410       -1.97630       -1.01350
C          0.94950       -2.88400        0.43460
C          1.97200       -1.44080       -2.83120
C          3.20910       -1.00040       -3.57200
C          3.18940        0.01790       -4.43780
O         -0.10540       -1.11760       -0.71930
Br         1.60210       -3.27620       -3.35170
H          1.10040       -0.81610       -3.12860
H          4.14370       -1.52630       -3.39820
H          2.27520        0.56770       -4.63940
H          4.09850        0.30820       -4.95430
C         -0.05770       -3.96340        0.04710
H          0.69140       -2.49330        1.44170
H          1.96070       -3.34110        0.48820
H         -1.08610       -3.54350        0.02110
H         -0.03050       -4.78330        0.79550
H          0.18800       -4.38600       -0.94900
