20
TSA8_9_Cl_Et_Br
C          1.99860       -0.20940        0.02300
C          1.55470       -1.17780       -0.80000
Cl         2.09880        1.47770       -0.46810
H          2.29030       -0.44540        1.04190
C          1.44740       -2.60300       -0.31230
C          2.29030       -2.96960       -3.86200
C          2.87780       -1.84460       -3.44190
C          2.06770       -0.62500       -3.09970
O          1.17750       -0.89590       -2.07480
Br         3.33630       -4.50970       -4.29200
H          1.21000       -3.02590       -3.96420
H          3.95860       -1.80500       -3.34750
H          1.49570       -0.31550       -3.99960
H          2.74510        0.20810       -2.82020
C          0.00940       -3.10190       -0.39900
H          1.79070       -2.69620        0.74160
H          2.09590       -3.24910       -0.94040
H         -0.65090       -2.48230        0.24360
H         -0.03990       -4.15450       -0.04910
H         -0.35370       -3.06050       -1.44830
