21
TSA8_9_CCl3_CBr3_OH
C          2.50040       -1.18660       -1.39030
C          1.15630       -1.89420       -1.19630
C          2.43640        0.33240       -0.99790
H          3.22600       -1.65980       -0.69210
C          0.99060       -3.07540       -0.24540
C          3.08370       -1.43470       -2.82320
C          2.25520       -0.85140       -3.94670
C          2.74620        0.07430       -4.77720
O          0.18750       -1.51080       -1.83510
O          3.21510       -2.81430       -3.04010
H          4.10370       -0.98560       -2.83640
H          1.23800       -1.19660       -4.09790
H          2.12690        0.46810       -5.57660
H          3.76010        0.44690       -4.66940
Cl         1.28370        1.29070       -1.97420
Cl         1.94720        0.54300        0.70230
Cl         4.04300        1.09940       -1.14520
Br         1.42020       -2.61090        1.58510
Br        -0.83650       -3.74500       -0.24650
Br         2.13390       -4.55360       -0.75670
H          3.88340       -2.93430       -3.76530
