21
TSA8_9_CCl3_CBr3_OH
C          1.63510       -0.06340       -0.04330
C          1.46410       -1.16660       -0.82290
C          1.86020        1.35530       -0.53410
H          1.57350       -0.16710        1.03090
C          1.18470       -2.54380       -0.23260
C          3.69120       -2.05210       -4.85490
C          2.69020       -2.02400       -3.96390
C          2.58930       -0.90980       -2.96580
O          1.46770       -1.08130       -2.18020
O          3.79910       -3.04950       -5.75980
H          4.43600       -1.26120       -4.85960
H          1.94470       -2.81510       -3.96220
H          2.49780        0.05180       -3.51270
H          3.51300       -0.90880       -2.34660
Cl         0.59660        1.84900       -1.69170
Cl         1.78260        2.47420        0.85300
Cl         3.47020        1.57400       -1.26310
Br         1.12070       -2.66790        1.71350
Br        -0.52520       -3.16910       -0.89490
Br         2.55200       -3.78340       -0.82350
H          3.16720       -3.78160       -5.80220
