21
TSA8_9_CCl3_CBr3_OH
C          2.84980       -0.94380       -1.45200
C          1.29530       -1.13010       -1.41730
C          3.25930        0.39920       -0.76810
H          3.26810       -1.78910       -0.86710
C          0.66080       -2.37340       -0.72400
C          3.40420       -1.01820       -2.90080
C          2.46400       -1.81440       -3.78780
C          1.10210       -1.09480       -3.81080
O          0.58810       -0.65730       -2.55410
O          4.68680       -1.58810       -2.88930
H          3.45340       -0.00320       -3.35360
H          2.39260       -2.85350       -3.43740
H          0.35460       -1.72630       -4.33100
H          1.24500       -0.17630       -4.42130
Cl         2.55620        1.81700       -1.60950
Cl         2.70460        0.47660        0.92360
Cl         5.03340        0.58800       -0.74160
Br         1.30160       -2.57520        1.09510
Br        -1.25860       -2.13650       -0.60490
Br         0.97020       -4.07030       -1.60620
H          5.04330       -1.52170       -3.81270
