18
TSA8_9_F_OMe_Br
C          1.94510       -0.05980       -0.02070
C          1.89860       -0.06550        1.32520
F          1.98580       -1.19060       -0.77080
H          1.93930        0.89010       -0.54670
O          1.84350        1.13490        1.95380
C          4.50060       -3.38510        2.07290
C          3.67100       -2.60480        1.37300
C          2.20570       -2.50010        1.70980
O          1.89640       -1.20480        2.08280
Br         6.35670       -3.47160        1.62450
H          4.14130       -3.97630        2.90990
H          4.06610       -2.02250        0.54620
H          1.96570       -3.16410        2.56650
H          1.57220       -2.83390        0.86250
C          1.85700        1.27180        3.32490
H          1.80790        2.34900        3.58460
H          2.79720        0.84750        3.73930
H          0.98300        0.75250        3.77240
