18
TSA8_9_F_OMe_Br
C          3.12460       -0.59910        0.81630
C          1.70200       -0.43270        1.42120
F          3.00500       -1.02450       -0.49600
H          3.66850        0.37040        0.81310
O          1.44620        0.84850        1.96800
C          3.88240       -1.65480        1.62650
C          3.09600       -2.97710        1.65900
C          1.57640       -2.72420        1.65400
O          1.27700       -1.49320        2.27690
Br         5.68400       -1.93690        0.96310
H          3.96230       -1.28660        2.67070
H          3.32490       -3.64550        0.80050
H          1.06020       -3.55820        2.17220
H          1.18310       -2.72240        0.60930
C          2.06220        0.99240        3.22890
H          1.87740        2.02640        3.58540
H          3.16460        0.87510        3.16790
H          1.61370        0.30830        3.98090
