23
TSA8_9_CBr3_CF3_Me
C          1.44910       -0.79970        1.72770
C          2.88230       -0.66040        2.26450
C          1.38330       -1.21490        0.20720
H          1.06810        0.24840        1.70630
C          3.91780       -1.75980        2.36560
C          0.50230       -1.50330        2.77620
C         -0.93670       -1.55780        2.31680
C         -1.90960       -0.87220        2.92420
O          3.24070        0.45360        2.62090
C          0.90150       -2.91310        3.23250
H          0.55660       -0.87320        3.69420
H         -1.19670       -2.19060        1.47460
H         -1.70230       -0.23260        3.77610
H         -2.93030       -0.95070        2.56400
Br        -0.28270       -0.64640       -0.62740
Br         2.74070       -0.26650       -0.81860
Br         1.58070       -3.10220       -0.20000
F          5.01850       -1.41090        1.60550
F          4.31420       -1.89020        3.68410
F          3.46400       -2.98130        1.92380
H          1.89070       -2.90570        3.72690
H          0.89380       -3.64220        2.40170
H          0.18260       -3.27250        4.00050
