14
TSA8_9_H_H_I
C          1.48060       -1.83980        1.40180
C          1.26830       -0.40720        1.00500
H          1.08850       -2.51840        0.61190
H          2.57340       -2.01300        1.49980
H          1.61340        0.39120        1.65390
C          0.79940       -2.15570        2.73870
C         -0.69550       -1.98700        2.64170
C         -1.36070       -1.12040        3.41100
O          0.70970       -0.13200       -0.04480
I          1.21780       -4.17870        3.29330
H          1.22660       -1.49730        3.52800
H         -1.24780       -2.58740        1.92440
H         -0.84380       -0.50220        4.13870
H         -2.43710       -1.02480        3.31340
