14
TSA8_9_H_H_I
C          2.05170       -0.10200        0.14520
C          1.29950       -0.10510        1.24420
H          2.21310       -1.01690       -0.41630
H          2.50980        0.81960       -0.19890
H          1.14810        0.82200        1.79170
C         -0.30600       -3.41430        4.08210
C         -0.56530       -2.71430        2.97280
C         -0.07400       -1.30890        2.78660
O          0.72840       -1.25600        1.66930
I         -1.02230       -5.38830        4.29240
H          0.27480       -2.98550        4.89300
H         -1.14930       -3.16990        2.17880
H          0.50100       -0.96360        3.67500
H         -0.95260       -0.64190        2.64930
