19
TSA8_9_I_Me_NH2
C          2.96710       -1.26630        1.32040
C          1.46350       -1.11840        1.33590
I          3.75750       -0.15690       -0.34680
H          3.34670       -0.76770        2.23970
C          0.79040       -0.46460        2.50700
C          3.49490       -2.73020        1.37660
C          3.25280       -3.55850        0.12470
C          2.05550       -4.02350       -0.24070
O          0.78920       -1.48030        0.38540
N          4.93420       -2.69560        1.65530
H          3.01900       -3.24650        2.24050
H          4.10520       -3.83140       -0.49330
H          1.16740       -3.84100        0.34970
H          1.96430       -4.62620       -1.13940
H          1.00430       -1.04220        3.43070
H         -0.30970       -0.42060        2.35860
H          1.17550        0.57010        2.62710
H          5.46350       -2.28520        0.85290
H          5.28470       -3.66660        1.82270
