19
TSA8_9_I_Me_NH2
C          2.06920       -0.20760        0.26470
C          1.46800       -1.08390        1.10890
I          2.90970       -0.49990       -1.66480
H          2.14390        0.83350        0.56400
C          0.93020       -0.57440        2.41720
C          3.75080       -3.81810        1.60940
C          3.39140       -3.39440        0.38870
C          1.93920       -3.27350        0.01530
O          1.29050       -2.42060        0.88580
N          5.11470       -3.93160        1.97370
H          2.98830       -4.07950        2.33880
H          4.15050       -3.13380       -0.34190
H          1.47510       -4.27840        0.10190
H          1.79960       -2.95620       -1.03380
H          1.43820       -1.10820        3.24720
H         -0.15890       -0.77640        2.47460
H          1.09340        0.51640        2.55430
H          5.86620       -3.68840        1.31190
H          5.36460       -4.25930        2.91770
