19
TSA8_9_I_Me_NH2
C          3.01700       -1.30000        1.04260
C          1.45430       -1.35390        0.99380
I          3.80180       -0.75160       -0.89190
H          3.35800       -0.47880        1.71050
C          0.85470       -0.74750        2.26180
C          3.53250       -2.65570        1.54720
C          3.06210       -3.79000        0.61580
C          1.70250       -3.45300       -0.02200
O          0.92040       -2.67470        0.85560
N          4.98390       -2.66870        1.72910
H          3.06040       -2.81890        2.54150
H          3.77030       -4.00620       -0.21390
H          1.17440       -4.39580       -0.27360
H          1.82570       -2.91340       -0.98650
H          1.16750       -1.32570        3.15740
H         -0.25300       -0.76160        2.19380
H          1.18260        0.30730        2.37410
H          5.46920       -2.58590        0.80780
H          5.26660       -3.57530        2.16780
