22
TSA8_9_CCl3_CH2F_NO2
C          1.40480       -0.02740       -0.60290
C          2.00040       -1.19400       -0.96910
C          2.09030        1.30600       -0.37900
H          0.33710       -0.03730       -0.42630
C          3.48120       -1.33690       -1.21710
C         -0.09430       -3.22530       -4.08140
C          0.18090       -2.24350       -3.20360
C          0.02980       -2.45050       -1.71960
O          1.27360       -2.33720       -1.12260
N          0.07770       -3.06220       -5.48480
H         -0.44900       -4.18470       -3.71490
H          0.54420       -1.28070       -3.55240
H         -0.35420       -3.47190       -1.51280
H         -0.70480       -1.73750       -1.29600
Cl         2.83670        1.90160       -1.88470
Cl         0.88290        2.51400        0.13410
Cl         3.31000        1.19980        0.92180
F          4.00390       -2.28020       -0.35360
H          4.05390       -0.40120       -1.10200
H          3.62830       -1.68510       -2.26130
O          0.49410       -2.03960       -5.94120
O         -0.18830       -4.06760       -6.28950
