22
TSA8_9_CCl3_CH2F_NO2
C          1.19400       -0.72220       -1.81160
C          1.84490       -1.67200       -0.72750
C          2.02430        0.56760       -2.13220
H          0.25080       -0.34870       -1.35660
C          3.31890       -2.02790       -0.95640
C          0.81970       -1.59750       -3.04310
C         -0.03880       -2.80780       -2.61050
C         -0.12590       -2.95860       -1.08750
O          1.14910       -2.89880       -0.48850
N          0.13440       -0.85420       -4.08480
H          1.76340       -2.00920       -3.45960
H         -1.07560       -2.77120       -3.01200
H         -0.58290       -3.94440       -0.86250
H         -0.79520       -2.19490       -0.63380
Cl         3.46910        0.26100       -3.14270
Cl         1.04530        1.77980       -3.00430
Cl         2.53200        1.36870       -0.61780
F          3.76290       -2.83970        0.07170
H          3.95070       -1.12090       -0.94400
H          3.45080       -2.56910       -1.91580
O         -0.93040       -0.35550       -3.87600
O          0.67060       -0.75910       -5.28330
