14
TSA8_9_I_F_F
C          1.81140        0.10300       -0.01380
C          1.49710        1.35950       -0.36950
I          1.99640       -0.62040        1.97070
H          1.94470       -0.63880       -0.79430
F          1.33970        1.63360       -1.69140
C          3.64810        4.81860        0.67960
C          3.35960        3.51720        0.58450
C          2.24460        2.88550        1.37590
O          1.28920        2.36430        0.52120
F          4.66110        5.34440       -0.05710
H          3.08310        5.47090        1.33830
H          3.94410        2.89310       -0.08510
H          1.75150        3.64040        2.02570
H          2.66840        2.10900        2.03640
