14
TSA8_9_I_F_F
C          2.70770        1.61760       -0.44460
C          1.20430        1.66730       -0.04850
I          3.76480        0.08900        0.64610
H          2.79980        1.30860       -1.50830
F          0.46480        1.96110       -1.18060
C          3.31090        3.00510       -0.23000
C          3.15720        3.44000        1.23480
C          1.91070        2.80800        1.87990
O          0.87700        2.65480        0.93310
F          4.63820        3.05500       -0.61740
H          2.73300        3.71620       -0.86010
H          4.03280        3.16480        1.86200
H          1.57080        3.44990        2.71850
H          2.14230        1.82040        2.33530
