18
TSA8_9_I_CHF2_CN
C          1.64600        0.06320       -0.08000
C          1.51370        0.60420       -1.33890
I          1.51470        0.96370        1.86340
H          1.74520       -1.01870        0.02290
C          2.03000       -0.07400       -2.58820
C          0.82830        4.73180       -1.75320
C          0.81340        3.76390       -0.84410
C         -0.01670        2.58610       -1.04800
O          0.91840        1.77890       -1.64920
C          1.97180        5.59660       -1.79390
H          0.07650        4.79340       -2.54100
H          1.60800        3.65590       -0.12070
H         -0.86320        2.77430       -1.75980
H         -0.46510        2.18700       -0.12590
F          1.71230        0.70360       -3.69260
F          3.42000       -0.19880       -2.61230
H          1.55630       -1.04240       -2.68780
N          2.88850        6.30040       -1.83740
