18
TSA8_9_I_CHF2_CN
C          2.16570        1.90250       -0.82960
C          1.20400        0.81130       -1.39500
I          2.05880        1.86780        1.32810
H          3.22490        1.65450       -1.05060
C          1.84520        0.04710       -2.56530
C          1.77330        3.23840       -1.45880
C          0.35670        3.59640       -1.01400
C         -0.55900        2.35580       -1.03530
O         -0.05010        1.32620       -1.86310
C          2.71330        4.33790       -1.21320
H          1.76040        3.09720       -2.56010
H          0.32720        4.01840        0.01910
H         -1.54350        2.68920       -1.42690
H         -0.74490        1.95350       -0.01480
F          1.94470        0.85720       -3.68340
F          3.10320       -0.42240       -2.22720
H          1.20900       -0.82580       -2.81830
N          3.43390        5.22650       -1.03950
