22
TSA8_9_NH2_CBr3_CCl3
C          2.79280       -1.87250       -0.74340
C          1.71670       -2.45250        0.17170
N          2.39800       -0.51950       -1.15080
H          3.72850       -1.76320       -0.15360
C          1.94880       -2.65350        1.66190
C          3.13390       -2.70790       -2.02950
C          1.91840       -2.86220       -2.93020
C          1.85320       -2.30020       -4.14100
O          0.60890       -2.68140       -0.29090
C          3.79670       -4.09390       -1.78600
H          3.90100       -2.10410       -2.56820
H          1.07160       -3.45080       -2.59390
H          0.96780       -2.43900       -4.75320
H          2.67090       -1.70270       -4.53030
H          1.48300       -0.53220       -1.65540
H          2.30270        0.09400       -0.30980
Br         2.37970       -0.95800        2.49560
Br         0.35920       -3.34310        2.54870
Br         3.39150       -3.88530        2.04320
Cl         4.28430       -4.81230       -3.34850
Cl         5.29420       -3.93160       -0.82760
Cl         2.70850       -5.26590       -0.98980
