22
TSA8_9_NH2_CBr3_CCl3
C          3.16990       -2.12380       -0.86470
C          1.72820       -2.40420       -0.34790
N          3.47440       -0.69030       -0.90080
H          3.90310       -2.60370       -0.18580
C          1.41470       -2.15410        1.14040
C          3.32730       -2.73350       -2.30080
C          1.96430       -3.22240       -2.84330
C          0.88680       -2.16210       -2.55370
O          0.75380       -1.79450       -1.18050
C          4.39330       -3.86170       -2.36920
H          3.67150       -1.92820       -2.98870
H          1.65290       -4.16120       -2.33570
H         -0.08750       -2.54940       -2.91770
H          1.13380       -1.24810       -3.13450
H          2.74360       -0.15940       -1.42780
H          3.57190       -0.30700        0.06380
Br         1.31120       -0.27130        1.60170
Br        -0.31540       -2.93380        1.53140
Br         2.70030       -3.03210        2.30020
Cl         4.54160       -4.48700       -4.03570
Cl         5.99880       -3.23630       -1.89770
Cl         3.98930       -5.23210       -1.29110
