21
TSA8_9_Me_Cl_OMe
C          1.75570       -0.00510       -0.11040
C          1.42250        0.26210       -1.39920
C          1.90060        0.91100        1.07440
H          1.93900       -1.04830        0.13420
Cl         1.31700       -1.12200       -2.47920
C          3.41970        4.00530       -2.12470
C          2.80060        3.06380       -1.38710
C          1.32930        2.76820       -1.54960
O          1.14660        1.46990       -1.97780
O          4.74740        4.28880       -2.01770
H          2.84640        4.57380       -2.85000
H          3.36260        2.48830       -0.66220
H          0.89740        3.43580       -2.32550
H          0.74260        2.97280       -0.63540
H          1.70470        1.97190        0.89950
H          2.93370        0.82320        1.46990
H          1.19480        0.57850        1.86380
C          5.64370        3.66460       -1.17350
H          6.64970        4.10770       -1.32080
H          5.69820        2.57980       -1.40630
H          5.34170        3.81310       -0.11480
