21
TSA8_9_Me_Cl_OMe
C          2.60960        0.93010       -0.88760
C          1.11010        0.83630       -1.31160
C          2.70060        1.09980        0.63270
H          3.12840       -0.02300       -1.13160
Cl         0.77040       -0.70140       -2.15050
C          3.29010        2.07120       -1.67720
C          2.49680        3.40710       -1.58070
C          0.98770        3.12830       -1.49580
O          0.67960        1.91110       -2.13850
O          4.70140        2.12110       -1.47550
H          3.16690        1.77890       -2.74360
H          2.74120        4.06740       -0.72330
H          0.42880        3.96550       -1.96150
H          0.64660        3.09640       -0.43330
H          2.22910        2.04620        0.96800
H          3.76040        1.08460        0.96020
H          2.18690        0.25250        1.13560
C          5.12780        3.12520       -0.58050
H          5.13080        4.11620       -1.08240
H          6.17200        2.90070       -0.28170
H          4.53710        3.14590        0.35820
