17
TSA8_9_CHF2_Cl_I
C          1.67160       -1.53280        1.15580
C          0.76840       -0.32160        1.46280
C          1.53480       -1.89580       -0.34330
H          2.73370       -1.23860        1.30440
Cl         1.21660        0.56460        2.95740
C          1.32320       -2.65830        2.16400
C         -0.17800       -2.94340        2.16100
C         -0.93750       -1.62980        2.39150
O         -0.61410       -0.65110        1.41370
I          2.44470       -4.47300        1.93610
H          1.58110       -2.29510        3.18310
H         -0.49320       -3.41110        1.20730
H         -0.75330       -1.24400        3.41760
H         -2.02490       -1.84330        2.33280
F          2.39670       -2.91630       -0.69500
F          0.24460       -2.24690       -0.69420
H          1.81580       -1.00670       -0.94790
