21
TSA8_9_CCl3_CN_CF3
C          1.76660       -0.01770        0.07760
C          1.42160       -0.88950        1.03720
C          1.88800       -0.30440       -1.40960
H          1.95600        1.01160        0.37480
C          1.28300       -0.43480        2.41260
C         -0.50040       -5.16820        1.42560
C         -0.06080       -4.20670        0.60910
C         -0.02360       -2.78180        1.05340
O          1.18150       -2.19820        0.75790
C         -0.65900       -6.59870        1.00640
H         -0.80910       -4.90960        2.43930
H          0.21950       -4.43260       -0.41950
H         -0.26360       -2.67600        2.13600
H         -0.80460       -2.26440        0.46500
Cl         1.31290       -1.89880       -1.98080
Cl         0.94960        0.92090       -2.30690
Cl         3.59620       -0.14100       -1.86460
N          1.17400       -0.07500        3.50040
F         -0.24100       -6.80310       -0.30120
F          0.08120       -7.40720        1.84610
F         -1.99280       -6.94270        1.10320
