22
TSA8_9_NH2_Et_Br
C          2.82410       -1.03560       -0.37490
C          1.44730       -1.42170        0.12940
N          2.87860        0.41430       -0.59150
H          3.56370       -1.28370        0.41660
C          1.25980       -2.03740        1.49340
C          3.21700       -1.84950       -1.63860
C          2.34830       -1.55010       -2.83760
C          1.59610       -2.48800       -3.42100
O          0.46420       -1.21130       -0.56620
Br         5.06890       -1.52240       -2.12840
H          3.15260       -2.92960       -1.37680
H          2.33610       -0.54520       -3.24810
H          1.57740       -3.50740       -3.04900
H          0.98840       -2.23400       -4.28360
H          2.19110        0.71700       -1.31810
H          3.83860        0.70750       -0.88080
C          1.96040       -3.38950        1.60840
H          0.17540       -2.19170        1.68690
H          1.65570       -1.34330        2.26500
H          1.55760       -4.09550        0.85140
H          1.78280       -3.81210        2.61990
H          3.05570       -3.28760        1.46340
