22
TSA8_9_NH2_Et_Br
C          1.83140       -0.14180        0.15810
C          1.43580       -1.44840        0.15260
N          2.11480        0.67540       -0.96860
H          1.93400        0.35010        1.12190
C          1.15570       -2.10910        1.48420
C          3.75740       -3.05730       -3.08510
C          3.09380       -2.10750       -2.41730
C          1.59320       -2.14060       -2.26600
O          1.24730       -2.25810       -0.93580
Br         5.66140       -2.97890       -3.23790
H          3.23350       -3.88850       -3.54700
H          3.65830       -1.29840       -1.96670
H          1.18580       -3.03070       -2.79140
H          1.09080       -1.27540       -2.73560
H          2.03790        0.37940       -1.94160
H          2.40180        1.65060       -0.80590
C          2.07900       -3.30620        1.69550
H          0.09960       -2.45390        1.49830
H          1.29550       -1.40950        2.33730
H          1.93380       -4.05920        0.89150
H          1.85170       -3.78480        2.67120
H          3.13990       -2.97590        1.69740
