22
TSA8_9_NH2_Et_Br
C          2.86250       -1.03050       -0.50340
C          1.40840       -1.51690       -0.18330
N          2.84690        0.35870       -0.97080
H          3.49910       -1.05810        0.40790
C          1.22610       -1.99570        1.26490
C          3.48050       -1.96580       -1.55470
C          2.58540       -2.07560       -2.79810
C          1.09610       -2.05270       -2.40850
O          0.92850       -2.51260       -1.08520
Br         5.29570       -1.47260       -2.03190
H          3.52400       -2.97840       -1.09700
H          2.76060       -1.27370       -3.54740
H          0.52260       -2.68740       -3.11460
H          0.66640       -1.02950       -2.51170
H          2.23880        0.47440       -1.81110
H          2.47240        0.97160       -0.21080
C          2.01970       -3.26650        1.57770
H          0.14740       -2.20350        1.43140
H          1.53080       -1.18670        1.96220
H          1.71010       -4.09400        0.90560
H          1.82750       -3.57300        2.62730
H          3.10990       -3.09600        1.46200
