19
TSA8_9_H_CF3_NH2
C          3.01460        2.22350       -0.83530
C          1.55900        1.70850       -0.58870
H          3.69450        1.76020       -0.08720
H          3.38440        1.93000       -1.84140
C          0.76070        1.58210       -1.89250
C          3.04450        3.74060       -0.62420
C          2.60130        4.07120        0.81780
C          1.63880        3.00000        1.35990
O          0.81140        2.51690        0.32500
N          4.36420        4.29780       -0.91660
H          2.31110        4.18970       -1.32710
H          3.45120        4.12510        1.53330
H          1.02430        3.43210        2.17630
H          2.20240        2.15060        1.81340
F         -0.50690        1.10680       -1.61020
F          0.64770        2.80660       -2.52540
F          1.38520        0.68650       -2.74160
H          5.07370        3.91740       -0.24840
H          4.33020        5.33830       -0.81450
