19
TSA8_9_H_NH2_CBr3
C          3.14410        1.54100        1.71800
C          1.65690        1.57210        1.43330
H          3.64980        1.00020        0.88960
H          3.48800        2.59540        1.70260
N          1.20830        2.11390        0.27790
C          3.52320        0.88690        3.07410
C          3.12010       -0.57660        3.06490
C          2.23630       -1.07650        3.93440
O          0.85230        1.12460        2.23770
C          5.03950        1.02120        3.39070
H          2.97780        1.42810        3.88020
H          3.56180       -1.24420        2.33070
H          1.76940       -0.44760        4.68590
H          1.97450       -2.12880        3.89580
H          0.19920        2.14770        0.07190
H          1.86960        2.50070       -0.41180
Br         5.44520        0.22290        5.11720
Br         6.17240        0.16490        2.05810
Br         5.57320        2.88670        3.52000
