17
TSA8_9_OH_NH2_H
C          1.41030       -1.60830       -0.67360
C          0.92750       -1.19110        0.73140
O          0.82940       -0.76720       -1.63590
H          2.52080       -1.54260       -0.74870
N          1.65470       -1.87390        1.80020
C          0.98520       -3.05600       -0.94170
C         -0.52050       -3.19410       -0.71950
C         -0.86300       -2.70180        0.69100
O         -0.47940       -1.34680        0.87480
H          1.25440       -3.35820       -1.97610
H          1.51300       -3.73470       -0.23710
H         -1.07450       -2.58530       -1.46710
H         -0.40390       -3.35660        1.46430
H         -1.96150       -2.77830        0.82850
H          1.35050        0.07820       -1.62950
H          1.27420       -1.54670        2.71640
H          2.65500       -1.57510        1.75710
