18
TSA8_9_NH2_NO2_Br
C          2.77030       -0.86530       -0.85650
C          1.59850       -1.64700       -0.27690
N          2.49770        0.57030       -0.72910
H          3.66910       -1.09190       -0.24570
N          1.76420       -2.52250        0.75690
C          3.15740       -1.26270       -2.31580
C          2.15660       -0.90330       -3.39390
C          0.99790       -1.54480       -3.56680
O          0.47690       -1.45840       -0.72590
Br         4.85620       -0.42070       -2.77400
H          3.36160       -2.35460       -2.36400
H          2.40430       -0.11330       -4.09740
H          0.70730       -2.37610       -2.93700
H          0.33430       -1.25010       -4.37360
H          3.33500        1.13240       -1.00150
H          1.69390        0.84570       -1.33920
O          0.82280       -3.10770        1.20190
O          2.95360       -2.74020        1.27740
