18
TSA8_9_NH2_NO2_Br
C          2.85830       -0.74770       -1.05400
C          1.47450       -1.32260       -0.60000
N          2.76630        0.70020       -1.26000
H          3.63230       -0.92610       -0.27460
N          1.58840       -2.00030        0.67650
C          3.30760       -1.46510       -2.33680
C          2.22650       -1.39210       -3.42450
C          0.82190       -1.51030       -2.80780
O          0.88580       -2.18810       -1.57100
Br         5.01900       -0.83080       -2.99760
H          3.43230       -2.53900       -2.07440
H          2.26460       -0.46150       -4.03090
H          0.15660       -2.05070       -3.51200
H          0.35760       -0.50610       -2.66780
H          2.52210        1.16070       -0.35320
H          2.02410        0.93940       -1.95510
O          1.28740       -3.15070        0.78590
O          1.99050       -1.33330        1.73680
