20
TSA8_9_NO2_CN_CH2F
C          2.97720        0.67620       -1.17410
C          1.57160        0.16390       -1.63410
N          2.80990        1.39190        0.08630
H          3.68140       -0.17380       -1.00720
C          1.55960       -1.29830       -1.78250
C          3.56310        1.54230       -2.32620
C          2.60040        2.68320       -2.62240
C          1.18270        2.14080       -2.83860
O          1.14140        0.72400       -2.87000
C          4.99940        2.07120       -2.21040
H          3.59360        0.87390       -3.21680
H          2.60070        3.43080       -1.79650
H          0.88080        2.51110       -3.83870
H          0.45550        2.55340       -2.10600
O          3.41720        1.03770        1.05270
O          1.81890        2.24560        0.24080
N          1.54320       -2.44920       -1.90090
F          5.12970        3.02460       -1.21880
H          5.26110        2.54440       -3.18700
H          5.72360        1.24630       -2.04610
