18
TSA8_9_CN_Br_CBr3
C          1.66070       -0.07020       -0.05490
C          1.44390       -1.06350       -0.94420
C          1.81730        1.33710       -0.33710
H          1.75080       -0.34800        0.98750
Br         1.43540       -2.84450       -0.26070
C          3.54870        1.24860       -3.52760
C          2.82750        0.12270       -3.58900
C          1.39560        0.09970       -3.15150
O          1.21540       -0.94920       -2.28160
C          4.98310        1.38870       -3.97430
H          3.06580        2.14410       -3.15270
H          3.24040       -0.80430       -3.97590
H          0.78180       -0.11160       -4.05380
H          1.01770        1.06040       -2.74450
N          1.95010        2.47490       -0.50410
Br         5.02700        2.67020       -5.42100
Br         6.02390        2.09330       -2.50470
Br         5.84300       -0.24450       -4.59660
