20
TSA8_9_CN_Me_NO2
C          1.68810       -0.01300        0.08520
C          1.54310       -0.86880        1.13340
C          1.86280       -0.35960       -1.30450
H          1.66870        1.05450        0.28010
C          1.44340       -0.28550        2.51020
C          2.73680       -4.73220        0.05810
C          2.07470       -3.77860       -0.61980
C          0.97030       -2.99240        0.01460
O          1.47210       -2.23120        1.05140
N          3.79470       -5.48090       -0.53030
H          2.45430       -4.94980        1.08580
H          2.32410       -3.55840       -1.65230
H          0.19190       -3.68320        0.40620
H          0.46610       -2.35960       -0.73680
N          2.00440       -0.59320       -2.42890
H          2.08080       -0.86000        3.21540
H          0.38560       -0.34840        2.83310
H          1.77390        0.77600        2.53500
O          4.16510       -5.25480       -1.64320
O          4.38560       -6.42580        0.16770
