20
TSA8_9_CN_Me_NO2
C          2.70460       -1.68640        0.14120
C          1.38620       -1.35510        0.93840
C          2.47010       -1.16570       -1.22460
H          3.57790       -1.14060        0.56350
C          1.55480       -0.54990        2.23340
C          2.86230       -3.24910        0.19400
C          1.64770       -3.88940       -0.47930
C          0.36350       -3.20420        0.00030
O          0.59340       -2.50920        1.20880
N          4.07910       -3.87880       -0.29110
H          2.82440       -3.49930        1.27720
H          1.70800       -3.79670       -1.59190
H         -0.39350       -3.99540        0.15660
H         -0.04020       -2.50500       -0.76770
N          2.25130       -0.78470       -2.29690
H          2.20810       -1.06660        2.96760
H          0.55220       -0.42630        2.70080
H          1.94900        0.46680        2.02810
O          4.44210       -3.68000       -1.40990
O          4.37420       -5.04860        0.24580
