19
TSA8_9_NH2_CHF2_F
C          2.82510        0.06520       -1.23190
C          1.37830       -0.22250       -1.58970
N          2.92340        0.57660        0.13710
H          3.36810       -0.90570       -1.27140
C          0.96280       -1.61920       -1.96150
C          3.58330        0.99400       -2.21690
C          3.12960        2.43650       -2.25460
C          1.98150        2.83920       -2.80490
O          0.53630        0.66010       -1.53170
F          4.91430        0.99200       -1.83300
H          3.54220        0.57330       -3.24530
H          3.79320        3.19520       -1.84830
H          1.29740        2.14160       -3.27100
H          1.73000        3.89520       -2.81260
H          2.39330        1.47430        0.22650
H          2.50730       -0.11850        0.79920
F         -0.39620       -1.67710       -2.21790
F          1.65190       -2.02620       -3.08900
H          1.19740       -2.30860       -1.12300
