19
TSA8_9_NH2_CHF2_F
C          1.84990       -0.16370       -0.14580
C          1.45570       -0.31720       -1.44390
N          2.24020        1.04440        0.49350
H          1.84900       -1.04410        0.49210
C          1.04630       -1.69570       -1.89760
C          4.21080        1.97180       -3.71090
C          3.50020        1.68320       -2.61440
C          2.00590        1.86550       -2.56970
O          1.38920        0.64050       -2.41750
F          5.55410        1.77370       -3.72510
H          3.72840        2.35770       -4.60510
H          4.01500        1.28780       -1.74450
H          1.64820        2.29660       -3.52660
H          1.68690        2.59030       -1.80060
H          2.25390        1.96200        0.04750
H          2.49670        1.01010        1.48950
F         -0.25810       -1.65940       -2.35270
F          1.87550       -2.09310       -2.93210
H          1.11540       -2.45400       -1.08830
