24
TSA8_9_NO2_Et_NO2
C          1.68800        0.04000        0.17190
C          1.36890       -0.89070        1.10120
N          1.97780       -0.26570       -1.19150
H          1.72360        1.08600        0.46780
C          1.02360       -0.43860        2.51760
C          4.08760       -3.96530       -0.03410
C          2.74890       -3.91800        0.09140
C          2.08600       -3.21390        1.24040
O          1.29380       -2.19960        0.73990
N          4.72510       -4.61730       -1.12680
H          4.71230       -3.48660        0.71550
H          2.11170       -4.38600       -0.65330
H          2.86280       -2.81720        1.92590
H          1.45210       -3.94040        1.78990
O          2.24780        0.62200       -1.94240
O          1.92570       -1.49690       -1.65220
C          1.89270       -1.03710        3.61830
H         -0.03450       -0.70290        2.72590
H          1.11130        0.66770        2.59720
H          1.73340       -2.13080        3.69950
H          1.59860       -0.59710        4.59470
H          2.96470       -0.81170        3.43540
O          4.08810       -5.15390       -1.98310
O          6.03800       -4.61870       -1.20150
