21
TSA8_9_CF3_Cl_OMe
C          2.72400        1.02770        0.84780
C          1.26460        1.41130        0.60360
C          2.87180       -0.52710        0.81630
H          3.28750        1.43620       -0.01920
Cl         0.82230        3.09160        0.31700
C          3.23630        1.76520        2.14360
C          2.70790        1.18090        3.44420
C          1.85810        1.84640        4.23350
O          0.37910        0.57060        0.56050
O          4.63230        2.04900        2.17340
H          2.81890        2.79070        2.06590
H          3.01270        0.18870        3.75800
H          1.50790        2.84110        3.97740
H          1.50230        1.38930        5.15160
F          4.17590       -0.94900        0.90850
F          2.14240       -1.11760        1.83450
F          2.38630       -1.00410       -0.39040
C          5.48850        0.94320        2.32960
H          6.38110        1.28050        2.89480
H          5.85100        0.61360        1.33500
H          5.05900        0.11080        2.92040
