21
TSA8_9_CF3_Cl_OMe
C          2.65580        0.88100        0.74750
C          1.26120        1.49020        0.99920
C          2.53430       -0.65490        0.57860
H          3.04790        1.26050       -0.22230
Cl         1.15900        3.24790        0.65450
C          3.61200        1.34650        1.87690
C          2.98980        1.03980        3.24850
C          1.58510        1.65180        3.31210
O          0.74550        1.15320        2.28090
O          4.88400        0.74260        1.71720
H          3.69780        2.45390        1.77100
H          2.94680       -0.05000        3.43980
H          1.63710        2.76220        3.28340
H          1.13640        1.38840        4.29200
F          3.77390       -1.21070        0.31740
F          1.99580       -1.26850        1.69410
F          1.70910       -0.92770       -0.49840
C          5.82930        1.31750        2.59550
H          5.78560        2.42980        2.60960
H          6.84460        1.05190        2.23670
H          5.71250        0.89940        3.61850
