18
TSA8_9_CN_Me_Br
C          2.04120        1.71990        0.34980
C          2.39300        1.93760       -1.09420
C          2.58920        0.52370        1.01870
H          0.95360        1.47770        0.26170
C          1.65760        1.11120       -2.12260
C          2.11650        2.98220        1.25710
C          1.07440        2.81510        2.33030
C         -0.21530        2.86780        1.96730
O          3.04570        2.90290       -1.44510
Br         3.87370        3.35790        2.01640
H          1.84590        3.89490        0.68900
H          1.34950        2.61660        3.36220
H         -0.47460        3.07460        0.92660
H         -1.01390        2.69970        2.67110
N          2.99410       -0.45020        1.48020
H          1.81840        1.50210       -3.14660
H          0.56250        1.16570       -1.91990
H          1.96870        0.05080       -2.05820
