18
TSA8_9_CN_Me_Br
C          1.67160        0.01040       -0.06090
C          1.61610        1.17700       -0.77150
C          1.83480       -0.11310        1.37150
H          1.51140       -0.91480       -0.59500
C          1.40070        1.10890       -2.26650
C          1.99460        4.78500        2.09490
C          1.99780        3.49240        1.76920
C          0.98190        2.89930        0.85470
O          1.65140        2.43680       -0.25360
Br         3.33890        5.47730        3.24510
H          1.26070        5.46930        1.69400
H          2.76950        2.83260        2.14290
H          0.20190        3.65450        0.55610
H          0.41670        2.08190        1.32640
N          1.96780       -0.18010        2.51980
H          1.92810        1.90800       -2.82950
H          0.31460        1.23870       -2.45730
H          1.66970        0.11490       -2.69380
