15
TSA8_9_Br_OH_Cl
C          1.57510       -0.02330        0.05610
C          2.12760       -1.23060        0.23440
Br         0.76770        0.46880       -1.61190
H          1.59920        0.71470        0.85090
O          2.72610       -1.53670        1.40940
C          1.78950       -4.75060        0.73260
C          2.89740       -4.14780        0.29690
C          2.90940       -3.24280       -0.90660
O          2.08150       -2.14020       -0.77420
Cl         1.85880       -5.79800        2.14240
H          0.84000       -4.60560        0.22880
H          3.83560       -4.31340        0.82140
H          2.58880       -3.82080       -1.80020
H          3.94670       -2.89000       -1.07880
H          2.75520       -0.92370        2.15800
