15
TSA8_9_Br_OH_Cl
C          1.28750       -1.75380        0.43170
C          2.71870       -1.19620        0.44070
Br         0.43030       -1.19290       -1.22850
H          0.65830       -1.30830        1.23150
O          3.34830       -1.42060        1.66810
C          1.31590       -3.29350        0.55500
C          2.62700       -3.89000        0.00720
C          3.22030       -2.99080       -1.08350
O          3.53580       -1.67090       -0.63110
Cl         1.14530       -3.79920        2.26260
H          0.43520       -3.70500        0.01860
H          3.39760       -3.92320        0.80920
H          2.53500       -2.94100       -1.95470
H          4.15920       -3.46860       -1.43320
H          3.50860       -0.51510        2.03600
