17
TSA8_9_I_CH2F_Br
C          1.84680       -0.09930        0.14460
C          1.48710       -0.87810        1.19430
I          2.20020       -0.66160       -1.86870
H          1.94180        0.97180        0.29370
C          1.21810       -0.23320        2.52560
C          3.99720       -4.15620        1.95050
C          3.51460       -3.11630        1.26300
C          2.17540       -3.16720        0.57810
O          1.32760       -2.23090        1.14390
Br         5.69200       -4.03200        2.82550
H          3.43630       -5.08210        2.03260
H          4.09540       -2.20040        1.20430
H          1.71030       -4.16720        0.70650
H          2.29840       -3.02060       -0.50560
F         -0.07970       -0.50140        2.91700
H          1.36190        0.86750        2.50390
H          1.91640       -0.65960        3.27710
