17
TSA8_9_I_CH2F_Br
C          3.02960       -1.04800        1.06850
C          1.48040       -1.24200        1.16340
I          3.59700       -0.56710       -0.95630
H          3.35070       -0.16090        1.65690
C          0.93020       -0.58700        2.43080
C          3.71400       -2.31540        1.59290
C          3.27270       -3.54100        0.77900
C          1.83200       -3.37650        0.26390
O          1.06640       -2.61210        1.16810
Br         5.65000       -2.17480        1.65840
H          3.36510       -2.46200        2.63830
H          3.91980       -3.73800       -0.10310
H          1.37720       -4.37860        0.12490
H          1.81010       -2.89590       -0.73950
F         -0.44590       -0.71830        2.46370
H          1.18000        0.49490        2.43850
H          1.36250       -1.06660        3.33470
