22
TSA8_9_CCl3_NH2_CH2F
C          1.43700       -1.21790        1.52830
C          2.81610       -1.23590        2.20930
C          1.44350       -1.54590       -0.01550
H          1.12960       -0.14750        1.53920
N          3.92430       -1.79580        1.66040
C          0.41360       -1.96470        2.47670
C         -1.01010       -1.97140        1.96900
C         -1.99230       -1.29940        2.57620
O          2.91390       -0.72590        3.31660
C          0.80060       -3.40240        2.88590
H          0.43680       -1.38510        3.42870
H         -1.25540       -2.56030        1.09150
H         -1.80470       -0.70320        3.46370
H         -3.00140       -1.34470        2.17950
Cl         1.80690       -3.23880       -0.44410
Cl        -0.10290       -1.11610       -0.80060
Cl         2.63250       -0.50160       -0.85420
H          4.81700       -1.77820        2.17580
H          3.92290       -2.25890        0.74600
F          0.70410       -4.29840        1.84250
H          0.10600       -3.74880        3.68170
H          1.82470       -3.43720        3.31200
