24
TSA8_9_CH2F_OMe_Me
C          3.28440       -0.98890        0.88370
C          2.18900       -0.37640        1.72830
C          2.89450       -0.88210       -0.60580
H          4.19480       -0.36720        1.03770
O          2.47260        0.71830        2.47990
C          3.61140       -2.43130        1.38600
C          2.46920       -3.39960        1.15720
C          1.83480       -4.00250        2.16670
O          1.06390       -0.85870        1.72900
C          4.88770       -3.00570        0.75700
H          3.82240       -2.34710        2.47730
H          2.15610       -3.62120        0.14090
H          2.11360       -3.81460        3.19910
H          1.02310       -4.69280        1.96060
F          3.92500       -1.28470       -1.43270
H          2.67040        0.17840       -0.85070
H          1.98620       -1.47950       -0.83000
C          1.56080        1.34390        3.30290
H          2.04940        2.21050        3.79410
H          1.20920        0.63990        4.08730
H          0.69570        1.70920        2.70940
H          5.74320       -2.31900        0.93180
H          4.77390       -3.18050       -0.33080
H          5.12970       -3.98240        1.22860
