17
TSA8_9_Cl_Me_F
C          1.87470       -0.16490       -0.07350
C          1.46270       -1.31410       -0.65540
Cl         2.24490        1.33970       -0.90780
H          1.95280       -0.11360        1.00880
C          1.11540       -2.49200        0.20830
C          3.93400       -2.72490       -3.75880
C          3.48930       -1.85880       -2.84320
C          2.18510       -1.12360       -3.00870
O          1.31500       -1.49360       -2.00060
F          5.10920       -3.37750       -3.56140
H          3.36780       -2.92390       -4.66350
H          4.07640       -1.68760       -1.94630
H          1.71300       -1.38950       -3.97810
H          2.36180       -0.03640       -3.03870
H          1.77050       -3.34520       -0.06550
H          0.05720       -2.77920        0.03470
H          1.25030       -2.28240        1.29210
