17
TSA8_9_Cl_Me_F
C          2.99490       -1.34830       -0.85270
C          1.44490       -1.41040       -1.05050
Cl         3.54720        0.35450       -0.81440
H          3.28530       -1.77680        0.13180
C          0.83130       -2.51200       -0.18940
C          3.66790       -2.11750       -1.99170
C          3.26900       -1.52620       -3.35270
C          1.85410       -0.92340       -3.30430
O          1.04110       -1.64200       -2.40400
F          5.04480       -2.13760       -1.85560
H          3.29570       -3.16430       -1.95000
H          3.95970       -0.72410       -3.69370
H          1.41310       -0.94400       -4.32220
H          1.87940        0.14930       -3.00760
H          1.22720       -3.50670       -0.48620
H         -0.27200       -2.51070       -0.31500
H          1.05850       -2.33050        0.88230
