23
TSA8_9_Br_Et_CF3
C          2.07430       -0.32830       -0.12190
C          1.47950       -1.38810       -0.72830
Br         2.74140        1.28520       -0.91770
H          2.19580       -0.34350        0.95690
C          1.00910       -2.54040        0.12710
C          3.73820       -2.39750       -3.33480
C          3.29140       -1.13510       -3.22120
C          1.81620       -0.84880       -3.14170
O          1.25460       -1.51740       -2.07110
C          5.19760       -2.75380       -3.40610
H          3.02220       -3.21330       -3.37220
H          3.98540       -0.30160       -3.18280
H          1.33950       -1.22120       -4.07240
H          1.60180        0.23500       -3.09040
C          1.73440       -3.82510       -0.26650
H         -0.08420       -2.67430       -0.01490
H          1.19390       -2.35580        1.20850
H          1.53800       -4.07450       -1.33090
H          1.37730       -4.66500        0.36490
H          2.82960       -3.70630       -0.11810
F          6.00830       -1.63350       -3.34320
F          5.50840       -3.58960       -2.35110
F          5.44300       -3.41660       -4.59380
