18
TSA8_9_Cl_NH2_NH2
C          2.07060       -0.03050       -0.28180
C          1.49720        0.14960       -1.49700
Cl         2.77350        1.20130        0.76000
H          2.09720       -1.03320        0.13440
N          0.96260       -0.98800       -2.15650
C          3.91430        1.94230       -3.49090
C          3.52330        2.35920       -2.27780
C          2.06340        2.53520       -1.96030
O          1.38490        1.34550       -2.14960
N          5.28460        1.76880       -3.80150
H          3.17040        1.72950       -4.25540
H          4.26220        2.57440       -1.51080
H          1.64670        3.28990       -2.65970
H          1.90110        2.93170       -0.94040
H          0.53280       -0.88600       -3.08770
H          1.01300       -1.92840       -1.73750
H          6.01820        1.95580       -3.10270
H          5.55680        1.44460       -4.74080
