16
TSA8_9_H_CN_OH
C          1.64290        0.04210       -0.02430
C          1.53340        1.26970       -0.60000
H          1.56230       -0.12090        1.04770
H          1.57380       -0.86250       -0.63140
C          1.38000        1.34980       -2.01880
C          2.77480        3.62450        2.90030
C          2.41650        2.56890        2.15960
C          1.10990        2.55110        1.43240
O          1.35520        2.43230        0.08450
O          3.93400        3.64390        3.59300
H          2.12370        4.48910        2.96330
H          3.07620        1.70830        2.08090
H          0.52530        3.48200        1.62920
H          0.46490        1.71840        1.78240
N          1.25920        1.38780       -3.16660
H          4.54600        2.89500        3.61790
