19
TSA8_9_CBr3_F_NH2
C          1.79540       -0.02340        0.01560
C          1.10020       -0.51110        1.05840
C          2.12110       -0.71500       -1.29500
H          2.16840        0.99260        0.11340
F          0.91410        0.29400        2.14150
C         -0.26290       -4.67360        2.61370
C         -0.58080       -3.66750        1.78630
C         -0.19860       -2.24730        2.08570
O          0.58380       -1.76250        1.06140
N         -0.63390       -6.00800        2.31470
H          0.28500       -4.47610        3.53080
H         -1.13150       -3.87240        0.87220
H          0.35820       -2.17900        3.04720
H         -1.12520       -1.63820        2.16590
Br         1.38850        0.35520       -2.73180
Br         4.04540       -0.75620       -1.49510
Br         1.47210       -2.53410       -1.54330
H         -1.15270       -6.23830        1.45430
H         -0.38360       -6.76540        2.96620
