19
TSA8_9_CBr3_F_NH2
C          1.55620       -2.18520        0.83040
C          1.17990       -0.83700        1.48630
C          1.53210       -2.05790       -0.73340
H          2.61960       -2.40030        1.07770
F          1.60080       -0.75860        2.80700
C          0.69270       -3.27890        1.53450
C         -0.79710       -2.91600        1.53700
C         -0.96690       -1.49980        2.10110
O         -0.20610       -0.55170        1.36900
N          0.91310       -4.62610        1.01140
H          1.01210       -3.28370        2.60250
H         -1.22910       -2.98240        0.52150
H         -0.70440       -1.47130        3.18180
H         -2.04000       -1.22490        2.03270
Br        -0.18140       -1.61490       -1.54020
Br         2.75190       -0.63690       -1.26320
Br         2.22230       -3.64000       -1.62600
H          0.41140       -4.74060        0.10240
H          0.49560       -5.31820        1.67580
