17
TSA8_9_CF3_Br_F
C          1.67190       -0.98770        1.36640
C          0.80680        0.24900        1.25330
C          1.60300       -1.81160        0.06030
H          2.72040       -0.63150        1.47130
Br         1.60070        1.98370        1.39090
C          1.39550       -1.83880        2.64290
C          0.03530       -2.49260        2.73530
C         -1.08770       -1.81530        2.99180
O         -0.38650        0.16880        1.01120
F          2.34860       -2.84180        2.70640
H          1.54300       -1.21020        3.54820
H         -0.02960       -3.57250        2.63630
H         -1.08000       -0.74380        3.15250
H         -2.03220       -2.34370        3.06930
F          2.48920       -2.87280        0.10920
F          0.32690       -2.30540       -0.14820
F          1.94950       -1.01110       -1.01470
