21
TSA8_9_CF3_CH2F_OH
C          2.66160        0.83670        0.52910
C          1.31430        1.50720        0.28150
C          2.50270       -0.65520        0.93160
H          3.18790        0.84340       -0.45140
C          1.24690        2.89180       -0.30810
C          3.55390        1.63280        1.53450
C          3.03790        1.64270        2.96160
C          1.88490        2.21060        3.32970
O          0.27110        0.91530        0.52340
O          4.84300        1.07290        1.52690
H          3.63560        2.68310        1.17300
H          3.64490        1.17820        3.73420
H          1.23790        2.70910        2.62010
H          1.58200        2.18610        4.37140
F          3.73950       -1.26270        1.05390
F          1.82410       -0.78090        2.13140
F          1.79460       -1.32950       -0.04850
F         -0.06830        3.28380       -0.48900
H          1.75870        2.89690       -1.29290
H          1.74060        3.62650        0.35840
H          5.46980        1.77400        1.84730
