18
TSA8_9_Cl_CHF2_OH
C          1.86150        1.79170       -1.22120
C          0.75350        1.37550       -2.15990
Cl         1.27250        1.53440        0.44770
H          2.74070        1.12850       -1.37560
C          0.95330        0.23450       -3.11710
C          2.29390        3.25340       -1.50770
C          3.46240        3.71570       -0.65820
C          3.38380        3.92540        0.65970
O         -0.31630        1.96830       -2.13660
O          2.67820        3.33220       -2.85770
H          1.42390        3.93030       -1.33450
H          4.41020        3.92270       -1.14830
H          2.46340        3.77860        1.21030
H          4.25670        4.27280        1.20320
F         -0.19140        0.01660       -3.86390
F          2.00110        0.52120       -3.97230
H          1.18930       -0.68820       -2.54690
H          2.60280        4.28570       -3.12610
