18
TSA8_9_Cl_CHF2_OH
C          1.96500        0.11840       -0.26010
C          1.46890        1.07730       -1.06710
Cl         2.26440        0.36770        1.45680
H          2.16830       -0.87390       -0.65040
C          1.17450        0.76850       -2.51130
C          2.22710        4.44720       -2.37320
C          2.87720        3.79330       -1.39840
C          2.13900        3.25020       -0.20730
O          1.18740        2.32330       -0.59950
O          2.88190        4.94260       -3.44600
H          1.15200        4.58770       -2.30900
H          3.95320        3.65690       -1.45970
H          1.62980        4.09430        0.30220
H          2.85910        2.80460        0.50810
F         -0.16470        0.99380       -2.76710
F          1.93460        1.58270       -3.32780
H          1.40870       -0.28830       -2.76300
H          3.83920        4.84740       -3.55860
