20
TSA8_9_NH2_OMe_F
C          1.83950       -0.03040       -0.10150
C          1.84950        1.06760        0.68640
N          1.74620       -1.36380        0.37820
H          1.87050        0.11330       -1.17820
O          1.86120        2.27590        0.07030
C          4.16720        0.53060        4.74520
C          3.35610        1.07230        3.83340
C          2.59340        0.21600        2.86630
O          1.82920        1.02900        2.05050
F          4.84630        1.32830        5.61000
H          4.29380       -0.54610        4.80630
H          3.24930        2.15330        3.79470
H          1.92430       -0.46370        3.43560
H          3.32470       -0.37850        2.27520
H          1.60260       -1.59270        1.36880
H          1.74050       -2.13910       -0.29950
C          1.89830        3.47420        0.75030
H          1.90140        4.30860        0.01960
H          2.82180        3.53470        1.36610
H          1.00540        3.57220        1.40410
