20
TSA8_9_Br_CHF2_CHF2
C          2.74680        2.60010       -0.05790
C          1.37240        1.88950        0.17640
Br         4.19190        1.40180        0.47960
H          2.90790        2.77370       -1.14410
C          0.41540        2.12150       -0.99660
C          2.74710        3.93270        0.71850
C          2.51500        3.67100        2.22020
C          1.63050        2.43060        2.43800
O          0.70960        2.29030        1.37960
C          3.97590        4.82320        0.47350
H          1.86750        4.50520        0.35200
H          3.45160        3.51590        2.79890
H          1.09610        2.52660        3.40520
H          2.24310        1.50530        2.52570
F         -0.75960        1.42410       -0.78190
F          0.12250        3.46610       -1.13460
H          0.87500        1.75080       -1.93640
F          5.13780        4.22350        0.92530
F          4.10140        5.09830       -0.87590
H          3.84530        5.78450        1.01540
