21
TSA8_9_NO2_OMe_CN
C          2.57030       -0.94310       -1.19890
C          1.55930       -1.77610       -0.46020
N          2.25670        0.46990       -1.01580
H          3.54580       -1.17150       -0.71060
O          1.97460       -2.46850        0.62320
C          2.63350       -1.40830       -2.69480
C          1.67780       -0.62740       -3.55490
C          0.44290       -1.04970       -3.81710
O          0.40270       -1.86320       -0.84900
C          3.97100       -1.32830       -3.30140
H          2.39450       -2.49740       -2.73030
H          1.98080        0.35850       -3.90650
H          0.08690       -2.00060       -3.43870
H         -0.22870       -0.41560       -4.38490
O          2.97070        1.15150       -0.34520
O          1.09740        0.95860       -1.40990
C          1.75350       -3.81370        0.78100
H          2.04930       -4.10470        1.80880
H          2.39840       -4.36160        0.06030
H          0.68870       -4.07390        0.60880
N          5.02220       -1.31700       -3.78550
