21
TSA8_9_NO2_OMe_CN
C          1.62790       -0.09970        0.00880
C          1.39990       -1.42020       -0.30260
N          1.69360        1.11490       -0.76000
H          1.76820        0.06750        1.06950
O          1.53960       -2.26770        0.75110
C          2.71550       -2.05460       -4.42760
C          2.32780       -1.33160       -3.36940
C          0.95940       -1.48230       -2.76930
O          1.08850       -1.99460       -1.50640
C          4.06920       -1.92790       -4.90120
H          2.03420       -2.75320       -4.91070
H          3.03520       -0.65340       -2.90020
H          0.36390       -2.19870       -3.37470
H          0.33020       -0.58380       -2.74290
O          2.11280        2.08830       -0.21010
O          1.39590        1.21110       -2.03260
C          1.72270       -3.62870        0.61770
H          2.10390       -4.03860        1.57590
H          2.50020       -3.82710       -0.15370
H          0.77750       -4.13690        0.34100
N          5.16350       -1.80020       -5.25410
