15
TSA8_9_H_CN_H
C          2.12190       -1.37840       -0.19940
C          1.99350       -1.29330        1.29830
H          3.19820       -1.23010       -0.43020
H          1.55190       -0.56720       -0.70550
C          1.25940       -0.22250        1.92140
C          1.70410       -2.74440       -0.77430
C          0.21310       -2.96610       -0.83660
C         -0.57560       -3.03500        0.23810
O          2.62140       -2.06890        2.00280
H          2.06790       -2.78160       -1.82340
H          2.20240       -3.56870       -0.21830
H         -0.23980       -3.09180       -1.81670
H         -0.18270       -2.92990        1.24140
H         -1.64030       -3.20620        0.10680
N          0.67960        0.64600        2.42240
