15
TSA8_9_H_CN_H
C          2.16600       -1.33950       -0.20790
C          1.28600       -1.22150        1.05170
H          1.60950       -0.82500       -1.01140
H          3.12580       -0.77890       -0.15640
C          1.52440       -0.14240        2.01250
C          2.22720       -2.82650       -0.61760
C          0.77040       -3.30630       -0.70240
C          0.04270       -3.06500        0.65020
O          0.88810       -2.45280        1.61140
H          2.73920       -2.95370       -1.59490
H          2.76990       -3.45790        0.12870
H          0.27120       -2.68070       -1.48110
H         -0.28640       -4.05000        1.03460
H         -0.88270       -2.45490        0.50840
N          1.68260        0.70000        2.78970
