20
TSA8_9_NH2_OH_CBr3
C          1.96590       -0.13110       -0.14430
C          1.61040       -1.10380       -1.03350
N          1.90370        1.27680       -0.33210
H          2.32160       -0.45620        0.82900
O          1.71500       -2.39080       -0.62480
C          3.18190        0.48150       -4.64960
C          2.62960        0.53920       -3.42760
C          1.19620        0.14600       -3.17380
O          1.15810       -0.93270       -2.31250
C          4.62810        0.83880       -4.87560
H          2.58080        0.15970       -5.49560
H          3.23870        0.86050       -2.59010
H          0.71390       -0.16640       -4.12300
H          0.57590        0.98110       -2.80140
H          2.21150        1.88660        0.43760
H          1.54020        1.74280       -1.16380
H          2.03830       -2.64890        0.25060
Br         5.07120        0.65560       -6.75280
Br         4.97920        2.67040       -4.34040
Br         5.77840       -0.35300       -3.86310
