20
TSA8_9_NH2_OH_CBr3
C          2.95930       -0.06070       -1.67570
C          1.65480       -0.87150       -1.39040
N          2.90830        1.24330       -1.00850
H          3.82350       -0.61140       -1.24400
O          1.98310       -2.15400       -0.94610
C          3.14110        0.06900       -3.20940
C          1.88680        0.72020       -3.83310
C          0.60240        0.26960       -3.11480
O          0.78840       -0.99320       -2.51630
C          4.46310        0.72670       -3.69190
H          3.16520       -0.97790       -3.58790
H          1.90260        1.83090       -3.84440
H         -0.22660        0.22690       -3.85030
H          0.27840        1.00630       -2.34540
H          2.82960        1.09970        0.02460
H          2.09170        1.81200       -1.32160
H          1.64080       -2.19270       -0.01740
Br         4.56900        0.65040       -5.63100
Br         4.65100        2.59280       -3.17440
Br         6.00590       -0.24220       -3.01620
