15
TSA8_9_Br_OH_H
C          1.38290        1.51860       -0.64260
C          2.60410        0.62670       -0.73340
Br         0.78150        1.74250        1.20150
H          0.54320        1.00180       -1.15480
O          3.09670        0.25300       -1.93410
C          1.60750        2.87170       -1.35560
C          2.82580        3.64210       -0.89770
C          2.95540        4.17730        0.31970
O          3.15450        0.22680        0.28020
H          1.75060        2.65980       -2.43660
H          0.70000        3.50640       -1.26510
H          3.63430        3.78530       -1.60910
H          2.17910        4.09640        1.06810
H          3.85740        4.72520        0.57240
H          2.68510        0.52730       -2.76510
