15
TSA8_9_Br_OH_H
C          1.31440        1.62650       -0.65490
C          2.76060        1.11150       -0.64470
Br         0.59710        1.50730        1.15470
H          0.64740        0.98690       -1.27140
O          3.27970        1.03090       -1.93980
C          1.28120        3.07230       -1.18150
C          2.58510        3.83190       -0.88210
C          3.29940        3.24160        0.33990
O          3.64130        1.86040        0.19550
H          1.17730        3.07040       -2.28880
H          0.39020        3.59300       -0.77220
H          3.28870        3.69850       -1.73390
H          2.68490        3.38800        1.25190
H          4.23790        3.81610        0.48530
H          3.45320        0.06580       -2.07980
