16
TSA8_9_I_NH2_H
C          1.81820        0.06840        0.11100
C          1.54430        1.20410        0.78890
I          1.94880       -1.90140        0.88630
H          1.94810        0.11970       -0.96580
N          1.41720        2.41810        0.06530
C          3.91960        2.39450        4.05640
C          3.50760        1.62740        3.04300
C          2.23440        0.82650        3.11360
O          1.35110        1.25140        2.13620
H          4.84180        2.95940        3.96780
H          3.34690        2.46870        4.97570
H          4.10740        1.58030        2.13880
H          1.74360        0.96280        4.10120
H          2.47450       -0.24350        3.02010
H          1.20170        3.29270        0.56500
H          1.54230        2.45000       -0.95760
