16
TSA8_9_I_NH2_H
C          3.15930        1.09640        0.94710
C          1.61160        1.27180        1.06720
I          3.72540       -0.97770        0.83140
H          3.52340        1.52420       -0.01190
N          1.19070        2.43380        0.29190
C          3.82310        1.79990        2.12890
C          3.31940        1.21480        3.45590
C          1.88490        0.67410        3.32460
O          1.14110        1.44540        2.40870
H          4.93230        1.76770        2.08190
H          3.51400        2.86750        2.08840
H          3.95760        0.38300        3.82490
H          1.39880        0.68790        4.32130
H          1.87510       -0.39110        3.00290
H          0.15700        2.54270        0.39580
H          1.37830        2.24770       -0.71880
