19
TSA8_9_CF3_NO2_F
C          2.27410        1.48720       -0.63690
C          1.61730        0.44190       -1.53570
C          1.96180        1.18940        0.84700
H          3.37410        1.39140       -0.75230
N          2.36190       -0.37790       -2.33450
C          1.96590        2.96310       -1.03850
C          0.57020        3.47270       -0.74880
C         -0.52340        3.09800       -1.41670
O          0.40190        0.31100       -1.51440
F          2.84390        3.77670       -0.34100
H          2.19310        3.11280       -2.11670
H          0.45440        4.22140        0.03040
H         -0.48270        2.39460       -2.23630
H         -1.48470        3.52770       -1.15190
F          2.62850        2.07810        1.67070
F          0.60310        1.28250        1.09780
F          2.38040       -0.09190        1.16170
O          1.82350       -1.19980       -3.01540
O          3.67380       -0.28430       -2.36880
