20
TSA8_9_Cl_CH2F_Me
C          2.10580        1.15190       -1.89290
C          0.85840        0.62350       -2.55960
Cl         1.81470        1.19370       -0.12670
H          2.95200        0.45310       -2.07840
C          0.90490       -0.65170       -3.35060
C          2.48760        2.55750       -2.42000
C          3.71820        3.06700       -1.70270
C          3.69860        4.18680       -0.97220
O         -0.19460        1.23610       -2.45240
C          2.77760        2.53430       -3.92810
H          1.63270        3.24870       -2.24210
H          4.64610        2.50760       -1.78230
H          2.79210        4.77480       -0.86620
H          4.60030        4.52240       -0.47080
F         -0.34180       -0.95290       -3.87070
H          1.23200       -1.48380       -2.69280
H          1.62700       -0.54310       -4.18640
H          3.62190        1.84790       -4.15520
H          3.04220        3.55470       -4.27980
H          1.88450        2.20120       -4.49710
