20
TSA8_9_Cl_CH2F_Me
C          2.74650        1.01670       -2.27620
C          1.38230        0.91090       -1.51810
Cl         4.10480        1.04920       -1.10520
H          2.91490        0.10580       -2.89270
C          0.40230        0.03100       -2.29710
C          2.71410        2.27630       -3.15800
C          2.48600        3.52740       -2.28570
C          1.67260        3.19080       -1.02290
O          0.73870        2.16940       -1.28770
C          3.94960        2.42880       -4.04920
H          1.83270        2.17290       -3.82850
H          3.42880        4.01060       -1.94760
H          1.15200        4.10550       -0.67160
H          2.33240        2.88170       -0.18180
F         -0.77480       -0.10140       -1.58370
H          0.83580       -0.97990       -2.44940
H          0.17590        0.48040       -3.28710
H          4.06160        1.53440       -4.69810
H          4.86920        2.54570       -3.43790
H          3.83830        3.32240       -4.69940
