17
TSA8_9_I_Me_F
C          2.21460       -0.10140       -1.78240
C          1.12260       -1.09890       -2.07560
I          1.47440        1.32360       -0.35240
H          3.07960       -0.62680       -1.32010
C          1.31830       -2.55160       -1.76300
C          2.68300        0.58800       -3.07530
C          3.81070        1.54780       -2.79740
C          3.71680        2.85120       -3.07790
O          0.06940       -0.72460       -2.57020
F          3.13790       -0.36660       -3.96910
H          1.82220        1.11900       -3.53890
H          4.72830        1.16790       -2.35740
H          2.81660        3.26860       -3.51870
H          4.54980        3.51290       -2.86480
H          2.18870       -2.94070       -2.33160
H          0.41690       -3.13810       -2.04200
H          1.50470       -2.67680       -0.67590
