20
TSA8_9_CH2F_CBr3_F
C          2.73580       -1.06420       -0.49560
C          1.28970       -1.62270       -0.39180
C          2.67550        0.37560       -1.04770
H          3.19460       -0.92840        0.50670
C          0.97000       -2.62270        0.74610
C          3.64380       -1.98910       -1.34200
C          2.86540       -2.80260       -2.38590
C          1.53500       -2.14630       -2.74350
O          0.66230       -1.98060       -1.62900
F          4.31090       -2.88140       -0.51980
H          4.42820       -1.38040       -1.83900
H          2.61390       -3.80360       -1.98310
H          1.03020       -2.81480       -3.47190
H          1.68720       -1.18970       -3.27530
F          3.94060        0.93610       -1.06250
H          2.03800        0.99470       -0.37980
H          2.25180        0.44810       -2.06290
Br         1.43280       -1.86270        2.47130
Br        -0.94260       -2.94180        0.78630
Br         1.83950       -4.34700        0.59460
