17
TSA8_9_CBr3_F_Br
C          1.55520       -1.40110       -0.69780
C          0.74450       -0.98020        0.51250
C          1.51600       -0.27780       -1.79580
H          2.61190       -1.46250       -0.35610
F          1.37370       -0.75600        1.69580
C          1.15820       -2.86630       -1.08360
C         -0.23430       -3.02280       -1.64210
C         -1.18200       -3.71230       -0.99850
O         -0.46770       -0.84680        0.44850
Br         2.40600       -3.73900       -2.29050
H          1.24620       -3.46490       -0.14830
H         -0.47710       -2.58280       -2.60140
H         -0.98550       -4.17960       -0.03830
H         -2.17060       -3.81180       -1.43450
Br         2.20260        1.37630       -1.03310
Br         2.66300       -0.62600       -3.32140
Br        -0.25530        0.14880       -2.48300
