17
TSA8_9_CBr3_F_Br
C          1.82740       -0.04260        0.00370
C          1.14640       -1.19020        0.17250
C          2.11910        0.68710       -1.29430
H          2.21480        0.42910        0.90280
F          0.99200       -1.66700        1.43930
C         -0.23230       -4.74550       -2.47820
C         -0.55940       -3.51900       -2.05730
C         -0.14860       -3.00870       -0.70730
O          0.61420       -1.87290       -0.86660
Br        -0.77660       -5.35250       -4.20690
H          0.34490       -5.41740       -1.85010
H         -1.13870       -2.86780       -2.70530
H          0.43470       -3.77680       -0.15210
H         -1.06370       -2.76430       -0.12510
Br         1.37050        2.46680       -1.16040
Br         4.03850        0.85220       -1.47570
Br         1.44610       -0.09810       -2.94470
