20
TSA8_9_CN_CCl3_NO2
C          1.66020       -0.07460        0.01260
C          1.52490       -1.41810       -0.18430
C          1.80630        0.94060       -1.00370
H          1.63440        0.32510        1.02290
C          1.41990       -2.34870        1.01560
C          3.72940       -2.35650       -3.24530
C          2.89560       -1.31070       -3.08520
C          1.46220       -1.49120       -2.67950
O          1.38450       -2.02430       -1.40790
N          5.07650       -2.18530       -3.67780
H          3.36690       -3.36690       -3.06560
H          3.24310       -0.30380       -3.27140
H          0.96980       -2.17320       -3.40990
H          0.88710       -0.54730       -2.73650
N          1.92490        1.79530       -1.77520
Cl         2.11670       -1.69820        2.53500
Cl        -0.28850       -2.72410        1.27980
Cl         2.25050       -3.89760        0.69630
O          5.51000       -1.10050       -3.92750
O          5.83720       -3.24180       -3.86480
