20
TSA8_9_CN_CCl3_NO2
C          2.87900       -0.86380       -0.96890
C          1.49700       -1.48990       -0.59300
C          2.59520        0.55040       -1.28500
H          3.59210       -0.87570       -0.11710
C          1.49920       -2.32530        0.70220
C          3.43840       -1.66610       -2.17520
C          2.48690       -1.52620       -3.36580
C          1.02630       -1.58720       -2.89240
O          0.91880       -2.26290       -1.65310
N          4.80200       -1.35780       -2.56460
H          3.42280       -2.73600       -1.87520
H          2.63230       -0.56670       -3.91450
H          0.44530       -2.12390       -3.66860
H          0.58230       -0.56960       -2.80690
N          2.34840        1.64720       -1.56230
Cl         2.12110       -1.39170        2.09180
Cl        -0.17910       -2.78000        1.08420
Cl         2.46210       -3.81760        0.52950
O          5.10610       -0.26150       -2.92570
O          5.67470       -2.33870       -2.67400
