22
TSA8_9_Et_Cl_NO2
C          2.42790       -1.07040        1.11240
C          1.10290       -0.52160        1.59970
C          2.47020       -0.89190       -0.43460
H          3.21690       -0.43290        1.56890
Cl         1.06700        0.86290        2.68090
C          2.61160       -2.53250        1.65610
C          1.71760       -3.51370        0.92580
C          0.73470       -4.17570        1.54410
O          0.04740       -1.02630        1.24790
N          3.98690       -3.01410        1.62350
H          2.33230       -2.51090        2.73500
H          1.88010       -3.69320       -0.13250
H          0.53510       -4.02970        2.60110
H          0.11720       -4.87220        0.98640
C          3.77870       -1.28270       -1.11330
H          2.29840        0.18410       -0.66000
H          1.64470       -1.46410       -0.91040
H          4.62080       -0.69100       -0.69660
H          3.70530       -1.06480       -2.19980
H          3.97340       -2.36860       -1.00420
O          4.89090       -2.30090        1.30780
O          4.25930       -4.20800        2.10590
