22
TSA8_9_Et_Cl_NO2
C          2.46580       -1.11140        1.13450
C          1.02670       -0.80280        1.67160
C          2.39270       -1.17160       -0.42340
H          3.13410       -0.25810        1.38620
Cl         1.09970        0.47030        2.92070
C          2.94590       -2.39170        1.87520
C          2.00720       -3.56060        1.53940
C          0.54150       -3.08700        1.47500
O          0.35360       -1.92360        2.25220
N          4.34350       -2.75390        1.70780
H          2.81340       -2.19350        2.96350
H          2.25770       -4.08320        0.59110
H         -0.11350       -3.90210        1.84520
H          0.20220       -2.89650        0.43520
C          3.72450       -1.32900       -1.14980
H          1.95780       -0.20760       -0.76860
H          1.72580       -1.97750       -0.77990
H          4.42450       -0.51800       -0.85640
H          3.55250       -1.26020       -2.24510
H          4.16840       -2.32470       -0.95380
O          5.12410       -1.98630        1.23230
O          4.80320       -3.82070        2.32670
