18
TSA8_9_OH_Br_CHF2
C          1.67050        0.07970       -0.12160
C          1.35980        1.17940       -0.83610
O          1.99430        0.12630        1.18550
H          1.64320       -0.88890       -0.61280
Br         0.87420        0.94490       -2.66970
C          4.17130        4.00540        0.71240
C          3.41910        2.89700        0.69950
C          1.91600        2.95640        0.80290
O          1.34420        2.45680       -0.35110
C          5.66490        3.93880        0.57920
H          3.70570        4.98310        0.81000
H          3.89740        1.92600        0.59610
H          1.58610        4.01100        0.91430
H          1.55040        2.41690        1.70120
H          2.18640       -0.68520        1.67410
F          6.20010        3.20210        1.61840
F          6.00230        3.35180       -0.62680
H          6.08470        4.96510        0.60870
