21
TSA8_9_CBr3_NH2_NO2
C          1.41820       -0.39690        0.01760
C          2.00590       -1.35210        0.78570
C          1.97920        0.18890       -1.26030
H          0.46710        0.00560        0.34360
N          3.27300       -1.90640        0.45920
C         -0.78830       -3.44920        3.92370
C         -0.24140       -3.26190        2.70980
C          0.05110       -1.89000        2.17520
O          1.40880       -1.80610        1.92320
N         -1.04810       -4.74780        4.44650
H         -1.03990       -2.58630        4.53470
H          0.01270       -4.11420        2.08520
H         -0.23410       -1.10530        2.90890
H         -0.54920       -1.75340        1.25140
Br         0.75910        1.53380       -1.94350
Br         3.68210        1.07440       -0.95850
Br         2.15600       -1.17250       -2.63300
H          3.68100       -2.62560        1.07350
H          3.79960       -1.64160       -0.38140
O         -0.76580       -5.73060        3.82820
O         -1.58840       -4.86830        5.63900
