22
TSA8_9_CHF2_CH2F_NH2
C          2.36980        1.75190       -0.07830
C          1.42120        1.05100       -1.03190
C          2.48420        0.93250        1.22860
H          3.37840        1.74390       -0.55000
C          1.93760        0.50650       -2.33410
C          1.97110        3.25250        0.08560
C          0.64580        3.45770        0.79400
C         -0.40350        4.02500        0.19250
O          0.23900        0.92360       -0.74700
N          3.02180        4.00470        0.77520
H          1.90760        3.66490       -0.94860
H          0.54240        3.14840        1.82890
H         -0.35060        4.35690       -0.83920
H         -1.33120        4.15910        0.73970
F          3.43190        1.46590        2.08050
F          1.27220        0.83880        1.88880
H          2.81140       -0.09900        0.97560
F          0.92060       -0.09060       -3.05810
H          2.72660       -0.24810       -2.13120
H          2.37210        1.33220       -2.93580
H          3.03920        3.77340        1.79280
H          2.82070        5.02800        0.69120
