22
TSA8_9_CHF2_CH2F_NH2
C          2.42920        2.06280       -0.05920
C          1.32890        1.51280       -1.01980
C          2.38990        1.26210        1.25850
H          3.44060        1.91090       -0.49990
C          1.90310        0.71000       -2.18340
C          2.23150        3.59200        0.10580
C          0.77580        3.94040        0.45440
C         -0.20170        3.07690       -0.36580
O          0.45140        2.52500       -1.49270
N          3.16420        4.18610        1.06240
H          2.42220        4.03980       -0.89740
H          0.52950        3.85210        1.53430
H         -1.06290        3.69870       -0.68330
H         -0.63590        2.26460        0.26530
F          3.39510        1.67360        2.11450
F          1.17100        1.38890        1.89960
H          2.55330        0.18590        1.03610
F          0.87360        0.17200       -2.93270
H          2.53540       -0.11660       -1.79710
H          2.51950        1.36950       -2.83110
H          4.14270        4.00050        0.74600
H          3.02940        5.22290        1.07280
