19
TSA8_9_NH2_Cl_CCl3
C          2.32380        1.14240       -2.33210
C          1.20930        1.28820       -1.28100
N          3.57330        0.74070       -1.67320
H          2.03650        0.33720       -3.04360
Cl        -0.43680        1.41270       -1.98320
C          2.45180        2.49310       -3.08850
C          2.71020        3.60900       -2.06480
C          1.60830        3.58900       -0.99020
O          1.48990        2.32610       -0.34850
C          3.46830        2.50130       -4.26250
H          1.46430        2.70730       -3.55540
H          3.70670        3.48940       -1.58870
H          0.63200        3.89910       -1.42370
H          1.86960        4.34430       -0.22400
H          3.44790       -0.21060       -1.25700
H          3.81500        1.38430       -0.88950
Cl         3.41590        4.08220       -5.09130
Cl         5.15640        2.21640       -3.74410
Cl         3.03240        1.26380       -5.47130
