24
TSA8_9_CF3_CH2F_OMe
C          2.90940        0.65550        1.16550
C          1.43680        1.06770        1.40000
C          2.98710       -0.82020        0.70000
H          3.31440        1.21380        0.29090
C          1.17450        2.57640        1.32040
C          3.78800        0.97020        2.41440
C          2.93740        1.11770        3.69470
C          1.69200        0.23430        3.65590
O          0.82410        0.47270        2.54550
O          4.48330        2.18590        2.18330
H          4.50390        0.12260        2.52500
H          2.58760        2.16190        3.81450
H          1.12170        0.43280        4.58730
H          1.98470       -0.83110        3.69490
F          4.29680       -1.14260        0.38980
F          2.53330       -1.71010        1.65070
F          2.22320       -0.98090       -0.44350
F         -0.18460        2.81390        1.40120
H          1.54080        2.96130        0.34580
H          1.68310        3.14240        2.12100
C          5.61960        2.28010        3.01630
H          6.15150        3.22220        2.77160
H          6.33480        1.44910        2.83000
H          5.33020        2.33850        4.08820
