21
TSA8_9_Et_F_CN
C          1.59100       -0.02610        0.04540
C          1.37320       -0.54130        1.38590
C          1.66990       -0.63700       -1.30690
H          1.48230        1.06210       -0.01110
F          1.36440        0.44600        2.32380
C          2.74390       -4.63880        0.45830
C          2.41540       -3.57070        1.19450
C          1.03200       -2.95080        1.16960
O          0.93880       -1.78070        1.90690
C          4.10490       -5.11820        0.51460
H          2.01720       -5.12360       -0.18980
H          3.18050       -3.15900        1.83430
H          0.36180       -3.69040        1.61520
H          0.63600       -2.79750        0.15140
C          3.10480       -0.27880       -1.69450
H          1.03320       -0.19040       -2.10400
H          1.52990       -1.72310       -1.34870
H          3.24570        0.82650       -1.71630
H          3.32580       -0.69220       -2.69150
H          3.87870       -0.70000       -1.03290
N          5.20300       -5.47780        0.58280
