21
TSA8_9_Et_F_CN
C          2.37400       -1.45430        0.17190
C          1.08390       -1.04420        0.95720
C          2.12930       -1.02040       -1.30820
H          3.20510       -0.88870        0.65580
F          1.30500        0.22500        1.48190
C          2.68340       -2.99520        0.23160
C          2.16290       -3.63120        1.50590
C          0.70740       -3.21810        1.62420
O          0.69220       -1.87480        2.02910
C          4.10290       -3.34470        0.06180
H          2.11910       -3.52690       -0.56040
H          2.71180       -3.28820        2.41410
H          0.20520       -3.83200        2.39430
H          0.13890       -3.38400        0.67160
C          3.34690       -0.42360       -1.98800
H          1.32310       -0.25630       -1.39560
H          1.74700       -1.88600       -1.89460
H          3.49360        0.60880       -1.60260
H          3.15850       -0.35970       -3.08250
H          4.25210       -1.03070       -1.80140
N          5.20780       -3.66610       -0.07110
