17
TSA8_9_CCl3_F_I
C          1.63710       -0.12660       -1.61200
C          1.01140       -0.98620       -0.53060
C          1.49150        1.39360       -1.24760
H          2.72660       -0.35120       -1.59440
F          1.79980       -1.79920        0.21990
C          1.13210       -0.62370       -3.00810
C         -0.32560       -0.35280       -3.28760
C         -1.21610       -1.34080       -3.42330
O         -0.19210       -0.96720       -0.32440
I          2.28100        0.05820       -4.68980
H          1.31270       -1.72270       -3.02840
H         -0.66610        0.66970       -3.39980
H         -0.92200       -2.38130       -3.32750
H         -2.25530       -1.10870       -3.63190
Cl        -0.19970        1.95460       -1.10300
Cl         2.26180        1.69140        0.33870
Cl         2.32650        2.47490       -2.39010
