22
TSA8_9_NH2_Et_Cl
C          2.80230        0.83400       -0.91920
C          1.41570        0.57340       -1.48320
N          2.82650        0.56280        0.52050
H          3.49110        0.10910       -1.40580
C          1.19610       -0.48650       -2.53500
C          3.38920        2.24240       -1.22430
C          2.71650        3.40630       -0.52420
C          1.50880        3.87150       -0.85440
O          0.44800        1.17210       -1.04100
Cl         5.11080        2.23540       -0.73310
H          3.38560        2.42600       -2.32070
H          3.25400        3.92460        0.26580
H          0.93220        3.43970       -1.66230
H          1.09560        4.72130       -0.31980
H          2.16500        1.19510        1.02580
H          2.53720       -0.42720        0.69610
C          1.93690       -0.16910       -3.83240
H          0.11080       -0.56710       -2.76480
H          1.54110       -1.46620       -2.14090
H          1.58720        0.79950       -4.24780
H          1.73650       -0.96980       -4.57570
H          3.03300       -0.11950       -3.66630
