22
TSA8_9_NH2_Et_Cl
C          1.81810       -0.09930       -0.20220
C          1.41930        0.43180       -1.39390
N          2.13320        0.60520        0.99000
H          1.89560       -1.18140       -0.13260
C          1.10290       -0.52100       -2.52530
C          3.84960        3.95100       -1.66750
C          3.16530        2.99330       -1.03170
C          1.65960        2.92180       -1.08550
O          1.25880        1.75650       -1.70500
Cl         5.60390        3.98580       -1.59010
H          3.33920        4.71490       -2.24490
H          3.71400        2.24380       -0.47140
H          1.26700        3.76670       -1.69120
H          1.18390        3.03520       -0.09450
H          2.08390        1.61790        1.10230
H          2.41500        0.06350        1.81910
C          2.01420       -0.25440       -3.72030
H          0.04500       -0.37490       -2.83150
H          1.22630       -1.58400       -2.22480
H          1.88230        0.78570       -4.08930
H          1.76310       -0.95390       -4.54550
H          3.07700       -0.40570       -3.43370
