20
TSA8_9_CBr3_F_Me
C          1.77870       -0.02550       -0.01280
C          1.07300       -1.05350        0.49240
C          2.14490        0.23290       -1.46250
H          2.12770        0.71960        0.69730
F          0.84680       -1.07900        1.83510
C         -0.25420       -5.30550       -0.83750
C         -0.55900       -4.00180       -0.90950
C         -0.22390       -3.04990        0.20220
O          0.58390       -2.04610       -0.28620
C         -0.59790       -6.24210       -1.95400
H          0.24740       -5.70460        0.04000
H         -1.06510       -3.61250       -1.78930
H          0.29370       -3.57760        1.03440
H         -1.16770       -2.60980        0.59050
Br         1.41730        1.95560       -1.96180
Br         4.07270        0.33200       -1.59170
Br         1.53820       -1.05480       -2.79120
H         -0.08410       -5.92520       -2.88580
H         -1.69570       -6.24730       -2.12060
H         -0.26950       -7.27050       -1.69420
