14
TSA8_9_H_H_Cl
C          1.55420       -1.37740        1.82290
C          1.06730        0.04590        1.52860
H          1.12410       -2.06420        1.06140
H          2.66200       -1.42510        1.76050
H          1.54090        0.80390        2.19340
C          1.07620       -1.78140        3.21930
C         -0.44050       -1.60430        3.29840
C         -0.79230       -0.16390        2.90080
O         -0.34720        0.12180        1.58460
Cl         1.52220       -3.47040        3.57430
H          1.55590       -1.12450        3.97810
H         -0.94280       -2.30680        2.59690
H         -0.37370        0.56710        3.62940
H         -1.89590       -0.05150        2.93330
