17
TSA8_9_Me_Cl_H
C          1.62820       -0.91940        1.39320
C          1.00700        0.45280        1.26860
C          1.36320       -1.73730        0.12190
H          2.72870       -0.77680        1.47050
Cl         2.02310        1.88390        1.34600
C          1.21370       -1.69990        2.66880
C         -0.24370       -2.08000        2.78400
C         -1.20610       -1.19960        3.07330
O         -0.18600        0.58890        1.05160
H          1.79500       -2.64810        2.65790
H          1.51970       -1.14550        3.58260
H         -0.51660       -3.12530        2.67190
H         -0.98270       -0.15260        3.24380
H         -2.23460       -1.53250        3.16600
H          0.27600       -1.92240       -0.01150
H          1.88710       -2.71530        0.17880
H          1.74450       -1.19250       -0.76850
