17
TSA8_9_Me_Cl_H
C          1.83480        0.01850        0.04690
C          1.14730        0.07450        1.19780
C          2.08090       -1.25600       -0.71010
H          2.23640        0.93610       -0.37360
Cl         0.92790        1.64860        1.97030
C         -0.19040       -3.08300        4.35270
C         -0.52000       -2.49710        3.19760
C         -0.13870       -1.07860        2.88900
O          0.63230       -1.05650        1.74720
H         -0.48320       -4.11110        4.54210
H          0.36930       -2.55030        5.11570
H         -1.08190       -3.06100        2.45910
H          0.42790       -0.62790        3.73380
H         -1.06750       -0.49010        2.72380
H          1.63430       -2.14210       -0.21250
H          3.17430       -1.41880       -0.80510
H          1.64050       -1.16540       -1.72500
