20
TSA8_9_CHF2_Br_CF3
C          1.50920       -0.51360        2.32650
C          1.10010        0.57370        1.35320
C          1.73340       -1.83030        1.54940
H          2.49230       -0.21270        2.75020
Br         2.21680        2.10590        1.10150
C          0.48550       -0.58020        3.51220
C         -0.91400       -0.93580        3.04920
C         -1.93970       -0.08820        3.18170
O          0.06780        0.48330        0.70690
C          0.89110       -1.52510        4.66350
H          0.47890        0.44320        3.95450
H         -1.09580       -1.90730        2.59960
H         -1.80540        0.89300        3.62710
H         -2.92880       -0.37580        2.84080
F          2.60060       -1.60440        0.49320
F          2.30830       -2.79510        2.35190
H          0.77800       -2.21390        1.13510
F          0.80910       -2.85450        4.29310
F          2.17920       -1.24350        5.08320
F          0.03430       -1.33250        5.73370
