20
TSA8_9_CHF2_Br_CF3
C          1.49180       -0.56860        2.60720
C          0.94090        0.54700        1.69440
C          1.67860       -1.84700        1.75980
H          2.50390       -0.26900        2.95720
Br         1.19430        2.35940        2.37740
C          0.53270       -0.69530        3.83030
C         -0.90980       -0.88740        3.34210
C         -1.27330        0.24380        2.37330
O         -0.38860        0.29150        1.26460
C          0.90800       -1.76260        4.87570
H          0.57350        0.27960        4.36660
H         -1.02800       -1.86760        2.83380
H         -1.30690        1.22080        2.90200
H         -2.30090        0.06010        1.99710
F          2.47080       -1.55920        0.66140
F          2.32100       -2.83300        2.48300
H          0.70840       -2.23480        1.38790
F          0.74890       -3.04400        4.38130
F          2.21770       -1.58530        5.28420
F          0.08320       -1.62810        5.97880
