16
TSA8_9_Cl_NH2_F
C          1.58490       -1.40070        1.48540
C          0.91900       -0.01360        1.41270
Cl         1.00680       -2.39690        0.11480
H          2.68630       -1.30660        1.37540
N          1.53500        0.95160        2.32230
C          1.24580       -2.05570        2.83180
C         -0.26920       -2.06220        3.03700
C         -0.79650       -0.63010        2.88850
O         -0.48850       -0.09280        1.60990
F          1.74500       -3.34510        2.89000
H          1.70800       -1.46420        3.65220
H         -0.75970       -2.71540        2.28330
H         -0.40910        0.02370        3.70120
H         -1.90000       -0.65290        3.00400
H          1.04180        1.86590        2.20900
H          2.52630        1.09590        2.02450
