22
TSA8_9_NH2_CH2F_CHF2
C          1.85410       -0.21380        0.00840
C          1.44220       -1.05820       -0.98150
N          2.19110        1.16010       -0.11920
H          1.92590       -0.61500        1.01600
C          1.10640       -2.47790       -0.60430
C          3.84470        0.23780       -4.31440
C          3.17680        0.38020       -3.15970
C          1.67130        0.29140       -3.09630
O          1.28510       -0.77510       -2.31140
C          5.34140        0.31370       -4.36170
H          3.30620        0.05930       -5.24110
H          3.73580        0.55320       -2.24590
H          1.26630        0.11420       -4.11540
H          1.19480        1.23030       -2.75850
H          2.14850        1.69680       -0.98550
H          2.48300        1.67280        0.72510
F         -0.20990       -2.74310       -0.93270
H          1.24710       -2.68430        0.47840
H          1.76540       -3.16770       -1.17200
F          5.76690        1.55230       -3.91690
F          5.88930       -0.67570       -3.56540
H          5.68790        0.16720       -5.40610
