22
TSA8_9_NH2_CH2F_CHF2
C          3.01900       -0.42600       -1.43490
C          1.51090       -0.83590       -1.39090
N          3.21580        0.81460       -0.68230
H          3.65360       -1.20920       -0.96220
C          1.30200       -2.19100       -0.72060
C          3.46460       -0.27670       -2.90840
C          2.51980        0.67100       -3.67010
C          1.05850        0.45110       -3.23950
O          0.90010       -0.83480       -2.67620
C          4.93880        0.11630       -3.08940
H          3.33720       -1.28190       -3.37040
H          2.76230        1.75000       -3.55240
H          0.39540        0.57140       -4.12080
H          0.73450        1.23130       -2.51030
H          2.61230        1.58210       -1.05550
H          2.96000        0.65550        0.31880
F         -0.04930       -2.47440       -0.65040
H          1.71590       -2.16880        0.30960
H          1.81260       -2.98780       -1.30270
F          5.19330        1.36690       -2.55470
F          5.75800       -0.81540       -2.47700
H          5.18420        0.13860       -4.17270
