18
TSA8_9_F_CF3_CN
C          1.37870       -1.87950        0.12490
C          1.86240       -1.27360        1.43090
F          2.45350       -2.29670       -0.64060
H          0.84940       -1.12570       -0.50360
C          3.22040       -1.60980        2.01160
C          0.46490       -3.08250        0.46940
C         -0.96980       -2.63440        0.58520
C         -1.53190       -2.30740        1.75100
O          1.06460       -0.67720        2.13920
C          0.56900       -4.16220       -0.52770
H          0.81960       -3.55040        1.41820
H         -1.55970       -2.53450       -0.32290
H         -0.97220       -2.35320        2.67890
H         -2.56150       -1.96380        1.77270
F          3.03400       -2.48960        3.06230
F          4.06750       -2.21140        1.09960
F          3.83210       -0.46630        2.48430
N          0.66240       -5.03110       -1.28300
