18
TSA8_9_NO2_Br_NH2
C          1.76440       -0.92210        1.88340
C          1.32680        0.35650        1.20700
N          1.73230       -2.02610        0.93580
H          2.81700       -0.77590        2.21950
Br         2.53420        1.83280        1.06970
C          0.93830       -1.21440        3.16660
C         -0.55110       -1.36700        2.91600
C         -1.44520       -0.53370        3.45830
O          0.20690        0.46260        0.73230
N          1.45510       -2.41140        3.83290
H          1.10450       -0.35040        3.85050
H         -0.91250       -2.17480        2.28930
H         -1.13500        0.28800        4.09660
H         -2.50350       -0.67160        3.26310
O          2.74210       -2.59960        0.65760
O          0.61030       -2.37900        0.34550
H          1.27980       -3.25850        3.24380
H          0.96190       -2.54100        4.74640
