18
TSA8_9_NO2_Br_NH2
C          2.03960        0.11730        0.13360
C          1.27260        0.38450        1.20540
N          2.30990       -1.20230       -0.33550
H          2.47520        0.95420       -0.40640
Br         1.00980        2.22980        1.69110
C         -0.31430       -2.14170        4.78570
C         -0.56760       -1.76320        3.52480
C         -0.13640       -0.42630        2.99680
O          0.70090       -0.61870        1.91970
N         -0.72890       -3.41030        5.26180
H          0.21500       -1.47620        5.46180
H         -1.09860       -2.43450        2.85530
H          0.39130        0.15980        3.78160
H         -1.03950        0.13510        2.67380
O          2.99900       -1.34940       -1.29880
O          1.81260       -2.26270        0.26480
H         -1.23050       -4.07200        4.65110
H         -0.52570       -3.68200        6.23420
