17
TSA8_9_Br_Me_F
C          3.05800       -0.76450       -1.40850
C          1.55900       -0.91680       -1.51580
Br         3.48400        0.37710        0.10900
H          3.48300       -1.76760       -1.18390
C          0.93290       -2.27590       -1.41790
C          3.77590       -0.27870       -2.69200
C          3.43660        1.12150       -3.14940
C          2.27220        1.44690       -3.71830
O          0.84130        0.06350       -1.63640
F          5.13760       -0.31700       -2.44020
H          3.58140       -0.98630       -3.52710
H          4.19320        1.89560       -3.05470
H          1.49690        0.70870       -3.88660
H          2.09740        2.46640       -4.04610
H          1.31080       -2.91910       -2.23990
H         -0.17310       -2.20690       -1.49670
H          1.19340       -2.73750       -0.44240
