16
TSA8_9_NH2_I_Br
C          2.05080        0.05620        0.17700
C          1.27910        0.39380        1.21920
N          2.30530       -1.29860       -0.16030
H          2.49480        0.83780       -0.43170
I          0.97610        2.46510        1.60880
C         -0.28520       -1.94810        4.92980
C         -0.54770       -1.62840        3.65820
C         -0.11230       -0.32240        3.06150
O          0.71550       -0.57190        1.98950
Br        -0.86070       -3.62540        5.64350
H          0.25670       -1.26620        5.57830
H         -1.09190       -2.32950        3.03220
H          0.42570        0.29760        3.81280
H         -1.01530        0.22770        2.71920
H          2.90250       -1.51640       -0.97050
H          1.90550       -2.07610        0.38480
