16
TSA8_9_NH2_I_Br
C          1.81010       -0.84690        1.88780
C          1.13580        0.46150        1.42820
N          1.66470       -1.88090        0.85730
H          2.89810       -0.67230        2.03620
I          1.75830        2.22730        2.49590
C          1.18540       -1.28720        3.22460
C         -0.33790       -1.34600        3.10260
C         -0.84560        0.00570        2.58420
O         -0.27570        0.33300        1.32490
Br         1.89410       -2.99190        3.82600
H          1.43400       -0.53240        4.00210
H         -0.65090       -2.15460        2.40900
H         -0.66050        0.80880        3.32970
H         -1.94710       -0.05950        2.46700
H          2.18310       -1.58030       -0.00030
H          0.66410       -2.01780        0.59040
