26
TSA8_9_CF3_Et_CF3
C          1.65240       -0.08600       -0.13420
C          1.38160       -0.63490       -1.34930
C          1.89510        1.36350        0.21820
H          1.67270       -0.75030        0.72580
C          1.05890       -2.10910       -1.43640
C          2.27610       -0.02540       -5.30610
C          2.99890        0.26880       -4.21470
C          2.37130        0.88120       -2.99740
O          1.37390        0.04330       -2.53060
C          2.87260       -0.66230       -6.53290
H          1.21140        0.19020       -5.31550
H          4.06330        0.05470       -4.18320
H          1.93740        1.87000       -3.25670
H          3.17870        1.01270       -2.24420
F          3.19660        1.51320        0.65790
F          1.65470        2.23970       -0.81770
F          1.03930        1.70540        1.24850
C          2.04730       -2.83110       -2.34920
H          0.03520       -2.22640       -1.85150
H          1.08040       -2.59570       -0.43670
H          2.00810       -2.41130       -3.37560
H          1.78420       -3.90870       -2.40310
H          3.08040       -2.73290       -1.95220
F          2.66520        0.16650       -7.61950
F          2.24400       -1.87190       -6.76170
F          4.23230       -0.88610       -6.39350
