26
TSA8_9_CF3_Et_CF3
C          2.68600       -0.61950       -2.25600
C          1.15630       -0.46540       -1.94430
C          3.50360        0.20260       -1.23200
H          2.99380       -1.67590       -2.09710
C          0.49090       -1.74950       -1.42610
C          2.91320       -0.28070       -3.75850
C          2.30080        1.08480       -4.12620
C          0.97620        1.31670       -3.38160
O          0.40040        0.08130       -3.02000
C          4.35040       -0.42250       -4.29000
H          2.31080       -1.04130       -4.30610
H          2.96840        1.95530       -3.94740
H          0.28490        1.89040       -4.03230
H          1.12520        1.95000       -2.47640
F          4.85480       -0.04990       -1.36940
F          3.28280        1.55970       -1.36970
F          3.14130       -0.17190        0.05030
C          0.39790       -2.83940       -2.49740
H         -0.53750       -1.49970       -1.08870
H          1.05660       -2.13330       -0.55030
H         -0.19220       -2.47930       -3.36670
H         -0.10810       -3.73200       -2.07400
H          1.40430       -3.14580       -2.84900
F          4.34280       -0.29680       -5.66820
F          4.85480       -1.66910       -3.96650
F          5.17960        0.55710       -3.77410
