19
TSA8_9_NH2_H_CF3
C          1.97740       -0.03040        0.19380
C          1.22610        0.29520        1.25340
N          2.27220       -1.37980       -0.12980
H          2.36860        0.76110       -0.43780
H          1.02580        1.34520        1.45250
C         -0.21310       -1.83310        5.13040
C         -0.49510       -1.62370        3.83310
C         -0.09990       -0.35490        3.13440
O          0.71660       -0.65950        2.06800
C         -0.59670       -3.09120        5.86240
H          0.31370       -1.06930        5.69560
H         -1.02420       -2.37510        3.25460
H          0.43200        0.33580        3.82660
H         -1.02000        0.14900        2.76690
H          2.85000       -1.58940       -0.95630
H          1.91700       -2.16210        0.43930
F         -1.25590       -3.99010        5.04110
F          0.54590       -3.69240        6.35520
F         -1.42430       -2.76320        6.91960
