19
TSA8_9_NH2_H_CF3
C          1.59370       -1.18350        2.54610
C          1.31930        0.17460        1.87260
N          1.48070       -2.27040        1.56740
H          2.63380       -1.18750        2.93910
H          1.57450        1.03410        2.53310
C          0.60790       -1.35180        3.73020
C         -0.83350       -1.11620        3.25160
C         -0.90450        0.23430        2.52660
O         -0.02100        0.26270        1.41730
C          0.74740       -2.70250        4.45550
H          0.84150       -0.55350        4.47060
H         -1.16320       -1.92270        2.56310
H         -0.69200        1.07470        3.22600
H         -1.94150        0.38240        2.16040
H          2.21920       -2.15100        0.83680
H          0.55120       -2.26090        1.09160
F          0.42420       -3.75540        3.61640
F          2.04630       -2.86660        4.90240
F         -0.10100       -2.73230        5.54830
