20
TSA8_9_Et_I_I
C          2.29650       -0.31610       -1.02590
C          1.01570       -0.89790       -0.46130
C          2.29550        1.19560       -0.66260
H          3.14630       -0.81280       -0.50880
I          1.09410       -2.38330        1.03750
C          2.39500       -0.63790       -2.54940
C          2.15600       -2.10970       -2.79960
C          1.14620       -2.54530       -3.55930
O         -0.07330       -0.52110       -0.86750
I          4.33550       -0.28210       -3.40850
H          1.63730       -0.03370       -3.09630
H          2.82490       -2.83620       -2.34630
H          1.00590       -3.60990       -3.71520
H          0.45540       -1.85200       -4.02880
C          3.56090        1.97650       -1.00120
H          2.17060        1.27150        0.44120
H          1.42910        1.70490       -1.13970
H          4.45130        1.49150       -0.54790
H          3.47210        3.00560       -0.59320
H          3.68420        2.08240       -2.09370
