20
TSA8_9_Et_I_I
C          1.74540       -0.23210        0.05560
C          1.34560       -1.50010       -0.22120
C          1.92140        0.95980       -0.85580
H          1.96780       -0.01930        1.09770
I          1.21420       -2.82070        1.42400
C          2.83820       -0.91680       -4.33720
C          2.52190       -1.34730       -3.11370
C          1.08810       -1.57030       -2.71470
O          1.00700       -2.05170       -1.42470
I          4.85750       -0.61210       -4.86820
H          2.06610       -0.71790       -5.07370
H          3.31440       -1.53860       -2.39620
H          0.66280       -2.34060       -3.39210
H          0.45760       -0.66680       -2.83330
C          3.36440        1.45000       -0.80980
H          1.25410        1.77020       -0.49280
H          1.66240        0.78360       -1.90300
H          3.65280        1.71480        0.23010
H          3.47180        2.35280       -1.44740
H          4.04990        0.66260       -1.18950
