20
TSA8_9_CF3_NH2_OH
C          1.56190       -0.59080       -1.99090
C          0.95810       -1.36350       -0.79510
C          1.40730        0.93370       -1.76390
H          2.65800       -0.77880       -2.03770
N          1.40300       -2.75580       -0.73900
C          0.92140       -1.12860       -3.29510
C         -0.60710       -1.10260       -3.19890
C         -1.03780       -1.84460       -1.92780
O         -0.46210       -1.26770       -0.76360
O          1.36510       -0.40290       -4.41070
H          1.24010       -2.19250       -3.40240
H         -0.99240       -0.06380       -3.18550
H         -0.79280       -2.92740       -1.99970
H         -2.14270       -1.78110       -1.84560
F          2.07560        1.28830       -0.60540
F          1.97050        1.63560       -2.81450
F          0.08590        1.31520       -1.62880
H          0.97950       -3.19780        0.10800
H          2.43930       -2.76360       -0.60460
H          1.11460       -0.93170       -5.21290
