26
TSA8_9_CH2F_Et_CHF2
C          2.71340       -0.25180       -1.47610
C          1.49150       -1.02930       -1.01300
C          2.79460        1.06240       -0.67180
H          3.61030       -0.84960       -1.20590
C          1.63200       -2.37460       -0.34630
C          2.69180       -0.10130       -3.03520
C          1.53360        0.74900       -3.51820
C          0.56190        0.25450       -4.29110
O          0.37390       -0.55380       -1.15650
C          4.00030        0.43910       -3.64440
H          2.58790       -1.13540       -3.43800
H          1.48920        1.79650       -3.23530
H          0.56350       -0.78550       -4.60170
H         -0.24860        0.89770       -4.61860
F          3.98830        1.72130       -0.88580
H          2.75060        0.82680        0.41360
H          1.94470        1.73610       -0.90670
C          2.25310       -3.40950       -1.28240
H          0.62990       -2.74470       -0.03700
H          2.25980       -2.26750        0.56390
H          1.62120       -3.53540       -2.18730
H          2.32380       -4.38590       -0.75830
H          3.27510       -3.10840       -1.59240
F          4.21730        1.76830       -3.33450
F          5.07990       -0.31880       -3.22660
H          3.93670        0.36650       -4.75180
