26
TSA8_9_CH2F_Et_CHF2
C          2.66070       -0.30100       -1.61090
C          1.31100       -1.05060       -1.33870
C          2.60230        1.07650       -0.92500
H          3.49880       -0.84780       -1.12630
C          1.46920       -2.35430       -0.54230
C          2.89460       -0.26980       -3.14770
C          1.68300        0.34460       -3.87590
C          0.36720       -0.05450       -3.18870
O          0.52890       -1.27900       -2.50850
C          4.21620        0.34580       -3.63510
H          2.93090       -1.34030       -3.45160
H          1.71160        1.45320       -3.95320
H         -0.43660       -0.13510       -3.94900
H          0.02820        0.73600       -2.47780
F          3.82860        1.71070       -0.96820
H          2.34930        0.93630        0.14790
H          1.83010        1.73090       -1.37730
C          2.22870       -3.43610       -1.31270
H          0.45640       -2.73920       -0.29630
H          1.99580       -2.14010        0.41240
H          1.70360       -3.68020       -2.26000
H          2.28860       -4.35590       -0.69380
H          3.26310       -3.10990       -1.54640
F          4.25840        1.71200       -3.42740
F          5.28820       -0.25480       -2.99980
H          4.31420        0.17050       -4.72810
