15
TSA8_9_OH_H_Br
C          1.51870       -1.81570        0.43210
C          1.28430       -0.53160        1.18370
O          0.90290       -1.73750       -0.82870
H          2.62330       -1.92130        0.30930
H          2.13500        0.05690        1.51190
C          1.06580       -3.10640        1.16150
C         -0.42150       -3.22470        1.41290
C         -1.05770       -2.51480        2.34930
O          0.15850       -0.09980        1.36750
Br         1.61980       -4.62990        0.08100
H          1.60230       -3.20840        2.13000
H         -0.99920       -3.95010        0.84710
H         -0.52950       -1.81110        2.98260
H         -2.12230       -2.65490        2.50530
H          1.54820       -1.29650       -1.44170
