20
TSA8_9_CF3_Br_CCl3
C          1.86870       -1.06270       -2.03670
C          0.56480       -1.81710       -1.90950
C          1.75750        0.22530       -1.17740
H          2.67050       -1.68550       -1.58420
Br         0.52880       -3.54230       -1.08130
C          2.24120       -0.77350       -3.53910
C          3.53080        0.02750       -3.59540
C          3.57970        1.25840       -4.11640
O         -0.47980       -1.33000       -2.31470
C          2.41920       -2.04970       -4.43140
H          1.42130       -0.16840       -3.98830
H          4.44420       -0.40840       -3.20070
H          2.69190        1.73370       -4.52180
H          4.51940        1.80040       -4.13880
F          2.97020        0.88560       -1.09990
F          0.81260        1.08700       -1.70780
F          1.38320       -0.10530        0.11450
Cl         2.92420       -1.58670       -6.08480
Cl         3.66000       -3.15750       -3.77420
Cl         0.90970       -2.97690       -4.65430
