17
TSA8_9_OH_NO2_H
C          2.87790        0.97480        0.18250
C          1.47510        1.45340       -0.32180
O          2.74600        0.17430        1.32830
H          3.40670        0.38140       -0.59860
N          1.50110        1.61960       -1.76390
C          3.70410        2.21400        0.52420
C          3.00430        3.03810        1.61660
C          1.48190        2.81410        1.60450
O          1.00860        2.66760        0.28470
H          4.74000        1.96280        0.83740
H          3.76890        2.83620       -0.39490
H          3.36580        2.77840        2.63530
H          0.98370        3.67470        2.09630
H          1.19770        1.91760        2.20060
H          2.33180       -0.67770        1.03080
O          1.24460        2.67380       -2.26280
O          1.74550        0.58310       -2.53600
