23
TSA8_9_CCl3_CF3_CHF2
C          0.70780       -1.54940        1.13270
C          1.70950       -2.74950        0.93280
C          1.26820       -0.18680        1.68000
H          0.33670       -1.29400        0.11560
C          3.05890       -2.44960        0.26300
C         -0.53840       -2.10520        1.92040
C         -0.93730       -3.51700        1.42680
C         -0.27360       -3.83920        0.09550
O          1.13990       -3.86530        0.23270
C         -0.40260       -2.14250        3.45930
H         -1.38760       -1.42610        1.69080
H         -0.57300       -4.30530        2.12370
H         -0.58780       -3.14160       -0.70990
H         -0.60910       -4.85170       -0.21190
Cl         2.28710        0.64660        0.47050
Cl        -0.05750        0.97280        1.99220
Cl         2.22880       -0.36290        3.17850
F          3.83270       -1.61110        1.03880
F          3.76140       -3.63290        0.11950
F          2.86410       -1.90030       -0.99150
F         -1.56910       -2.62680        4.02650
F          0.65390       -2.95110        3.84260
H         -0.24580       -1.12660        3.86780
