17
TSA8_9_CH2F_I_F
C          1.84600       -0.04920       -0.01510
C          1.15870       -0.98960       -0.68100
C          2.11850        1.32350       -0.56390
H          2.22670       -0.27830        0.97550
I          0.86820       -2.87090        0.27330
C         -0.09670       -1.54600       -5.13270
C         -0.44730       -0.99080       -3.96810
C         -0.09400       -1.61740       -2.65110
O          0.66870       -0.73250       -1.92130
F         -0.43780       -0.94420       -6.30170
H          0.46000       -2.47770       -5.16380
H         -1.00510       -0.05880       -3.97020
H          0.47090       -2.56380       -2.80220
H         -1.03440       -1.84110       -2.10240
F          3.48380        1.52580       -0.63020
H          1.67360        2.07860        0.11690
H          1.68720        1.47070       -1.57600
