17
TSA8_9_CH2F_I_F
C          1.70920       -0.42890       -1.93050
C          1.00950       -1.30000       -0.87060
C          1.48160        1.06080       -1.61820
H          2.80700       -0.60080       -1.89090
I          1.71780       -3.33310       -0.75600
C          1.18460       -0.83430       -3.32160
C         -0.34380       -0.78720       -3.34780
C         -0.88640       -1.64380       -2.19610
O         -0.40630       -1.19670       -0.93640
F          1.71110       -0.02180       -4.31050
H          1.49650       -1.88020       -3.53290
H         -0.70890        0.25580       -3.24440
H         -0.64990       -2.71740       -2.35730
H         -1.99320       -1.56650       -2.19940
F          2.02110        1.36820       -0.38150
H          0.40390        1.32200       -1.60140
H          1.98560        1.68940       -2.38230
