14
TSA8_9_Br_F_Br
C          2.19460        1.50440       -0.88610
C          1.27910        1.32940       -2.06650
Br         1.29610        0.81000        0.69620
H          3.11290        0.90050       -1.05250
F          1.66060        0.54600       -3.10870
C          2.58860        2.98250       -0.69590
C          3.51560        3.14220        0.48220
C          3.20070        3.90760        1.53170
O          0.19160        1.88480       -2.09800
Br         3.51090        3.65670       -2.26990
H          1.66720        3.58960       -0.55050
H          4.46810        2.62000        0.47770
H          2.25860        4.44560        1.57350
H          3.89280        3.99970        2.36260
