14
TSA8_9_Br_F_Br
C          1.85070        0.12180       -0.06350
C          1.43840        1.14830       -0.83100
Br         2.25090        0.18620        1.81100
H          1.92550       -0.86000       -0.51920
F          1.11980        0.87900       -2.12330
C          3.75910        4.68330       -0.95720
C          3.40350        3.45080       -0.57730
C          2.19830        3.20290        0.28900
O          1.27850        2.43180       -0.39810
Br         5.28980        4.95070       -2.06970
H          3.18400        5.55070       -0.64880
H          3.99820        2.60070       -0.90210
H          1.70780        4.16420        0.55050
H          2.50990        2.73890        1.23770
