23
TSA8_9_Me_Me_CHF2
C          2.87560       -1.08540        0.84720
C          1.51950       -0.63110        1.35230
C          2.99190       -0.75860       -0.65190
H          3.64660       -0.48190        1.37610
C          1.42580        0.43930        2.39820
C          3.12580       -2.58470        1.21260
C          2.15920       -3.52100        0.51450
C          1.28940       -4.27680        1.19130
O          0.49430       -1.12630        0.90660
C          4.56860       -3.05290        0.93810
H          2.98790       -2.66300        2.31600
H          2.17310       -3.58910       -0.56920
H          1.23960       -4.24550        2.27520
H          0.61530       -4.93740        0.65550
H          2.24340       -1.32100       -1.24840
H          4.00580       -0.97710       -1.03720
H          2.81420        0.32680       -0.81140
H          1.95350        0.10840        3.31720
H          0.36510        0.65190        2.65070
H          1.89750        1.37060        2.02060
F          4.86070       -3.07630       -0.41360
F          5.47510       -2.23600        1.59050
H          4.69450       -4.08620        1.32750
