21
TSA8_9_OH_Et_Br
C          2.18590        1.22910       -1.14950
C          0.97790        0.59880       -1.84090
O          1.84610        1.46070        0.19650
H          3.04600        0.51920       -1.18470
C          1.00900        0.14720       -3.28600
C          2.66350        2.56080       -1.80230
C          3.69280        3.29380       -0.96350
C          3.40360        3.85110        0.21810
O         -0.04310        0.42240       -1.18810
Br         3.51170        2.23820       -3.53140
H          1.80010        3.24510       -1.95230
H          4.70600        3.41060       -1.33890
H          2.40580        3.80530        0.64040
H          4.17390        4.37980        0.77000
H          2.02260        0.61900        0.69380
C         -0.28590       -0.53540       -3.73040
H          1.84800       -0.56850       -3.42040
H          1.15620        1.02210       -3.94690
H         -0.47620       -1.44120       -3.11600
H         -0.20010       -0.84010       -4.79470
H         -1.14420        0.16360       -3.63120
