21
TSA8_9_CHF2_OMe_Cl
C          2.80270        0.15220        1.68070
C          1.30880        0.07820        2.10360
C          2.98090       -0.59330        0.34280
H          3.10380        1.20860        1.50940
O          0.54140        1.22420        1.79240
C          3.65320       -0.38800        2.85490
C          3.13560       -1.73480        3.37930
C          1.59380       -1.75840        3.41920
O          1.07040       -0.44380        3.40470
Cl         5.41020       -0.43590        2.54140
H          3.50940        0.33210        3.69120
H          3.50220       -2.61670        2.81150
H          1.25860       -2.29670        4.32940
H          1.18610       -2.34270        2.56010
F          4.28130       -0.48710       -0.11480
F          2.64870       -1.93120        0.45550
H          2.31810       -0.13330       -0.42090
C          0.72050        2.21310        2.78410
H          0.25270        3.15360        2.42790
H          1.79320        2.44200        2.96720
H          0.20670        1.92600        3.72720
