26
TSA8_9_CHF2_Et_CCl3
C          1.58510       -0.13340       -0.09760
C          1.33300       -1.03940       -1.08280
C          1.85810        1.34810       -0.21160
H          1.56120       -0.48480        0.93050
C          0.96450       -2.45390       -0.69180
C          4.00960       -0.57080       -4.88670
C          3.00760       -1.00460       -4.10670
C          2.37850       -0.09810       -3.09110
O          1.37690       -0.77650       -2.42030
C          4.67400       -1.46580       -5.90000
H          4.35640        0.45420       -4.77960
H          2.65210       -2.02630       -4.20360
H          1.94170        0.77860       -3.61470
H          3.18000        0.23060       -2.39320
F          3.14830        1.61780        0.20360
F          1.64700        1.87570       -1.46640
H          1.15040        1.87150        0.46430
C          1.96200       -3.46020       -1.25700
H         -0.04740       -2.68250       -1.08920
H          0.93190       -2.58050        0.41270
H          1.97660       -3.41400       -2.36540
H          1.66450       -4.48670       -0.95590
H          2.98120       -3.25300       -0.86680
Cl         3.48870       -2.03940       -7.10200
Cl         5.95420       -0.56790       -6.75420
Cl         5.41790       -2.86980       -5.08960
