16
TSA8_9_CN_Cl_OH
C          1.65660       -0.01800        0.08990
C          1.64530       -0.98080        1.05310
C          1.74560       -0.23780       -1.31810
H          1.48590        1.01770        0.36710
Cl         1.38110       -0.52400        2.73830
C          2.14850       -4.86760       -1.42730
C          2.02420       -3.55740       -1.17520
C          1.09210       -3.03150       -0.12330
O          1.79530       -2.31000        0.81700
O          2.99480       -5.31360       -2.38200
H          1.56690       -5.59330       -0.86670
H          2.60780       -2.84870       -1.75170
H          0.56750       -3.85990        0.40040
H          0.31040       -2.40220       -0.59300
N          1.81770       -0.41670       -2.45470
H          3.55250       -4.71500       -2.90060
