18
TSA8_9_H_CCl3_OH
C          1.90160        2.16270       -0.10900
C          0.80870        2.31030       -1.14180
H          1.53090        1.47510        0.68050
H          2.80480        1.70440       -0.56840
C          1.02250        1.87520       -2.57570
C          2.28520        3.51970        0.51010
C          3.35690        3.35470        1.56230
C          3.15760        2.64050        2.67500
O         -0.26910        2.77390       -0.79650
O          2.75700        4.36940       -0.50350
H          1.37790        3.96540        0.98260
H          4.31840        3.84070        1.42110
H          2.20980        2.14720        2.86510
H          3.95040        2.55070        3.41070
Cl         2.36690        2.79040       -3.30420
Cl         1.41060        0.13660       -2.62870
Cl        -0.43430        2.14620       -3.57480
H          2.68730        5.29730       -0.15670
