18
TSA8_9_H_CCl3_OH
C          2.06200        0.20300       -0.25170
C          1.62420        1.33880       -0.83920
H          2.31440        0.15180        0.79880
H          2.16910       -0.72690       -0.79490
C          1.23870        1.39310       -2.30860
C          2.34460        5.25520        1.64930
C          2.71850        4.18130        0.93780
C          2.02930        2.85540        1.08170
O          1.48460        2.50550       -0.14140
O          2.97150        6.44350        1.50610
H          1.52410        5.18490        2.35790
H          3.54030        4.26140        0.23210
H          1.21170        2.91290        1.83220
H          2.78540        2.12930        1.43790
Cl         2.26350        2.60130       -3.12290
Cl         1.40350       -0.14750       -3.20710
Cl        -0.45890        1.91450       -2.44620
H          3.70670        6.57170        0.88890
