18
TSA8_9_H_CCl3_OH
C          2.76200        2.93490       -0.82380
C          1.34490        2.33480       -0.69760
H          3.51850        2.12050       -0.79080
H          2.88140        3.49700       -1.77400
C          0.93690        1.43730       -1.87850
C          2.97360        3.89640        0.35010
C          2.69680        3.16400        1.66710
C          1.30080        2.52960        1.59360
O          1.23870        1.61490        0.51740
O          4.28520        4.39180        0.32850
H          2.24560        4.73540        0.23760
H          3.45230        2.36170        1.82090
H          0.50530        3.30530        1.50780
H          1.11330        1.97850        2.53840
Cl         0.96740        2.34750       -3.41280
Cl         2.00890        0.01660       -2.02320
Cl        -0.73110        0.86120       -1.63080
H          4.28270        5.22650        0.86610
