21
TSA8_9_Et_CN_H
C          1.57740       -0.06360        0.05950
C          1.44120       -1.41490       -0.02630
C          1.71120        0.88180       -1.11470
H          1.56260        0.40080        1.03950
C          1.25190       -2.19200        1.18530
C          0.06500       -1.96060       -4.49290
C          0.91490       -2.09140       -3.47480
C          0.40210       -2.07850       -2.07570
O          1.45060       -2.09770       -1.18470
H          0.43490       -1.95470       -5.50960
H         -1.00070       -1.83930       -4.31120
H          1.97970       -2.19040       -3.66480
H         -0.24370       -2.96740       -1.90130
H         -0.20830       -1.17100       -1.94710
C          3.04390        1.60600       -1.04170
H          0.89540        1.63550       -1.05200
H          1.62680        0.37970       -2.10050
H          3.13870        2.12400       -0.06340
H          3.11110        2.36160       -1.85370
H          3.86840        0.87120       -1.15610
N          1.05450       -2.82360        2.12600
