21
TSA8_9_Et_CN_H
C          0.99080       -0.32070       -1.56470
C          1.80410       -1.39420       -0.74490
C          1.65400        1.09500       -1.66500
H          0.02970       -0.23920       -0.99990
C          1.48430       -1.30180        0.69040
C          0.55790       -0.78650       -2.98730
C          0.40900       -2.30370       -3.12520
C          0.34850       -2.96840       -1.76350
O          1.58430       -2.75410       -1.10160
H          1.28100       -0.48660       -3.77940
H         -0.40770       -0.28210       -3.23740
H          1.33180       -2.70810       -3.61090
H          0.22910       -4.05960       -1.93620
H         -0.54040       -2.63870       -1.17250
C          2.93270        1.29660       -0.84250
H          0.90270        1.87940       -1.42930
H          1.98050        1.28630       -2.71310
H          2.75110        1.18420        0.24810
H          3.33230        2.31830       -1.04250
H          3.71080        0.56840       -1.16950
N          1.23590       -1.23210        1.81860
