21
TSA8_9_CHF2_Me_OH
C          1.43640       -1.27700       -1.46370
C          0.83070       -1.64980       -0.12280
C          1.25520        0.23660       -1.71300
H          2.53190       -1.46140       -1.38650
C          1.68880       -2.24630        0.95130
C          0.94990       -2.16650       -2.65260
C         -0.52880       -2.08860       -2.97700
C         -1.47300       -2.65190       -2.21720
O         -0.34820       -1.43060        0.11280
O          1.67750       -1.80100       -3.79860
H          1.20050       -3.22650       -2.40850
H         -0.83790       -1.59990       -3.89680
H         -1.22280       -3.20120       -1.31670
H         -2.51530       -2.58750       -2.51150
F          1.93770        0.63700       -2.84780
F         -0.08200        0.56630       -1.84990
H          1.67210        0.80380       -0.85270
H          2.11520       -3.20690        0.59400
H          1.09260       -2.43940        1.86890
H          2.51430       -1.54770        1.20160
H          1.64660       -2.57210       -4.42440
