19
TSA8_9_CN_CF3_CN
C          2.74500        0.51360       -1.46010
C          1.57360       -0.36410       -1.97560
C          2.31820        1.01410       -0.13140
H          3.61030       -0.14330       -1.25950
C          1.51390       -1.86260       -1.79400
C          3.10400        1.71040       -2.45230
C          2.31210        2.90310       -1.99680
C          1.03060        2.99960       -2.30880
O          0.56190        0.15600       -2.40600
C          4.50730        2.16590       -2.53480
H          2.86770        1.42990       -3.50550
H          2.70410        3.51210       -1.17950
H          0.60850        2.34370       -3.05250
H          0.40330        3.68920       -1.76840
N          1.91310        1.45830        0.87240
F          1.04500       -2.45890       -2.95510
F          2.74160       -2.40340       -1.47490
F          0.61870       -2.14660       -0.77450
N          5.57890        2.59480       -2.66850
