19
TSA8_9_CN_CF3_CN
C          2.91330        0.66230       -1.31880
C          1.56690        0.03080       -1.78660
C          2.59760        1.31950       -0.03090
H          3.69710       -0.10240       -1.14660
C          1.45520       -1.50380       -1.86870
C          3.31750        1.64930       -2.46220
C          2.25770        2.73490       -2.56620
C          0.85590        2.11060       -2.57280
O          0.89770        0.71730       -2.84620
C          4.64050        2.28570       -2.47900
H          3.30560        1.06250       -3.40780
H          2.34090        3.44530       -1.70530
H          0.30180        2.62900       -3.37980
H          0.31740        2.30750       -1.61770
N          2.31980        1.84820        0.95830
F          0.80650       -1.87700       -3.03260
F          2.69460       -2.11860       -1.84780
F          0.71790       -1.95560       -0.79110
N          5.65680        2.83260       -2.58620
