23
TSA8_9_H_Et_CHF2
C          2.67410        0.32550        2.49560
C          1.49380        1.23030        2.77450
H          2.47680       -0.12660        1.49920
H          3.60380        0.93080        2.41700
C          1.22110        2.37430        1.82670
C          2.89050       -0.81640        3.51980
C          3.89320       -1.79430        2.94740
C          3.57490       -3.06890        2.69810
O          0.74850        1.01980        3.72020
C          3.41960       -0.32040        4.88380
H          1.92160       -1.34180        3.67530
H          4.90140       -1.45310        2.72860
H          2.57880       -3.45050        2.89960
H          4.31820       -3.74260        2.28470
C         -0.03760        3.16440        2.18610
H          1.09740        1.96740        0.80030
H          2.09390        3.06160        1.83360
H         -0.92800        2.50170        2.15490
H         -0.18270        3.98670        1.45370
H          0.05790        3.60530        3.20190
F          4.63170        0.33170        4.73260
F          2.52970        0.53250        5.50570
H          3.57170       -1.19280        5.55520
