19
TSA8_9_NH2_Me_F
C          1.84370        0.22830        0.02370
C          1.47620        0.99610        1.08950
N          2.24750       -1.13290        0.04600
H          1.81950        0.68690       -0.96210
C          1.05450        2.41720        0.82760
C          4.22900       -0.17590        4.14160
C          3.48390       -0.36400        3.04670
C          1.97870       -0.42250        3.10990
O          1.43470        0.63360        2.40960
F          5.58150       -0.11320        4.04080
H          3.76940       -0.06260        5.11910
H          3.98170       -0.46310        2.08800
H          1.64520       -0.32070        4.16490
H          1.56690       -1.38960        2.77440
H          2.30520       -1.71250        0.88360
H          2.48630       -1.58680       -0.84640
H          1.72580        3.10130        1.38610
H          0.01370        2.56470        1.18430
H          1.09650        2.69360       -0.24850
