19
TSA8_9_NH2_Me_F
C          2.89790        0.39670        1.09280
C          1.40920        0.75130        1.42570
N          2.97170       -0.82750        0.29150
H          3.37450        1.20640        0.49520
C          1.06910        2.18170        1.01500
C          3.68420        0.24670        2.40160
C          3.01930       -0.77240        3.33700
C          1.48580       -0.69590        3.23210
O          1.08750        0.58900        2.80640
F          5.00760       -0.08630        2.17220
H          3.65440        1.23380        2.91320
H          3.33000       -1.82170        3.14150
H          1.03920       -0.93240        4.21970
H          1.08690       -1.46670        2.53290
H          2.51160       -1.63240        0.77130
H          2.48230       -0.67010       -0.61910
H          1.69010        2.90380        1.58760
H         -0.00310        2.38360        1.22060
H          1.25110        2.32000       -0.07140
