20
TSA8_9_Et_I_H
C          2.23760       -0.48280       -0.96020
C          0.97200       -0.96420       -0.26600
C          2.36510        1.04760       -0.75200
H          3.10020       -0.98370       -0.46740
I          0.74850       -0.76290        1.82930
C          2.26120       -0.85740       -2.46590
C          2.22070       -2.35130       -2.67130
C          1.25430       -2.94310       -3.38000
O          0.06240       -1.49060       -0.88860
H          3.20590       -0.51230       -2.92960
H          1.41550       -0.35650       -2.98860
H          3.00450       -2.96280       -2.23390
H          1.25860       -4.02040       -3.50890
H          0.45590       -2.36460       -3.83460
C          3.67610        1.64060       -1.27250
H          2.32990        1.26980        0.33560
H          1.51050        1.56780       -1.23810
H          4.54210        1.14530       -0.78430
H          3.70700        2.72440       -1.03260
H          3.76310        1.54290       -2.37260
