20
TSA8_9_Et_I_H
C          1.77130       -0.21920        0.08580
C          1.38710       -1.51940        0.01550
C          1.95740        0.80660       -1.00750
H          1.97180        0.16520        1.08180
I          1.23590       -2.55150        1.85410
C          2.90420       -1.59350       -4.14100
C          2.59050       -1.82410       -2.86460
C          1.15830       -1.99900       -2.43670
O          1.07440       -2.26620       -1.08600
H          3.94240       -1.46970       -4.43090
H          2.13210       -1.52620       -4.90170
H          3.38620       -1.88530       -2.12760
H          0.74680       -2.87470       -2.98140
H          0.51690       -1.13450       -2.70140
C          3.39630        1.31090       -1.01420
H          1.27750        1.65960       -0.79770
H          1.72110        0.45600       -2.01540
H          3.66050        1.74850       -0.02770
H          3.51320        2.09520       -1.79180
H          4.09440        0.47730       -1.24200
