20
TSA8_9_Et_I_H
C          2.29770       -0.58570       -1.20250
C          0.92570       -1.25040       -0.91990
C          2.23480        0.94550       -0.97970
H          3.04670       -1.02970       -0.50910
I          0.22030       -0.94090        1.08370
C          2.68400       -0.92060       -2.66150
C          2.59470       -2.42480       -2.90570
C          1.20230       -2.90540       -2.49100
O          1.00070       -2.64800       -1.11860
H          3.71140       -0.57980       -2.90240
H          1.97530       -0.41690       -3.35610
H          3.36080       -2.95360       -2.29740
H          1.14210       -4.00080       -2.65820
H          0.40420       -2.43810       -3.11290
C          3.58230        1.64360       -1.17220
H          1.91700        1.15660        0.06160
H          1.48660        1.39740       -1.66690
H          4.33620        1.22090       -0.47460
H          3.46800        2.72710       -0.95630
H          3.94630        1.54550       -2.21450
