23
TSA8_9_CHF2_OMe_NH2
C          1.85860       -0.10630        0.00760
C          1.68600        1.12170        0.53830
C          1.62900       -1.42700        0.69760
H          2.21180       -0.16560       -1.01990
O          1.94150        2.18760       -0.26030
C          4.35480        1.94660        3.19170
C          3.44450        1.05620        2.77120
C          1.96880        1.28380        2.98690
O          1.23190        1.30570        1.80850
N          5.73480        1.72170        2.98640
H          4.03790        2.85650        3.69750
H          3.76580        0.15050        2.27530
H          1.79130        2.24320        3.51900
H          1.57600        0.47560        3.63710
F          2.82250       -2.12350        0.73430
F          1.14540       -1.29750        1.98270
H          0.89200       -2.01140        0.11200
C          2.27050        3.43960        0.20760
H          2.28000        4.15090       -0.64240
H          3.28920        3.40580        0.64630
H          1.54050        3.79200        0.96980
H          6.07200        0.87330        2.50680
H          6.42630        2.41060        3.32150
