23
TSA8_9_CHF2_OMe_NH2
C          2.96710        0.74160        0.83090
C          1.54920        1.33220        0.96770
C          2.84860       -0.79720        0.72460
H          3.42490        1.07180       -0.12680
O          1.11700        2.42220        0.17130
C          3.80830        1.28180        2.01920
C          3.07310        1.06540        3.35050
C          1.67170        1.69450        3.27180
O          0.89010        1.16460        2.21290
N          5.15900        0.71950        2.05460
H          3.90960        2.38050        1.88800
H          2.99630       -0.01140        3.59990
H          1.73620        2.79720        3.20380
H          1.15170        1.47990        4.22830
F          4.08350       -1.38100        0.51260
F          2.25440       -1.36520        1.83630
H          2.21570       -1.04320       -0.15590
C          1.93140        3.55740        0.34610
H          1.53180        4.36580       -0.29960
H          2.97020        3.37690       -0.00010
H          1.89150        3.94670        1.38020
H          5.12820       -0.27860        2.36100
H          5.72410        1.24160        2.76370
