23
TSA8_9_CBr3_CBr3_CHF2
C          2.08350       -0.23900       -0.06340
C          1.62920       -0.98940        0.98400
C          1.76450       -0.26390       -1.55020
H          2.79130        0.54700        0.15530
C          2.03700       -0.66080        2.42090
C          0.33070       -5.43070        0.90890
C          1.17760       -4.39010        0.95780
C          1.01570       -3.18410        0.07630
O          0.80070       -2.06640        0.86270
C          0.51480       -6.62430        1.79670
H         -0.50900       -5.42220        0.21930
H          2.00990       -4.41480        1.65290
H          0.14100       -3.33500       -0.58670
H          1.93610       -3.07760       -0.53770
Br         1.43440        1.57160       -2.08030
Br         3.32590       -0.87600       -2.51440
Br         0.20270       -1.21400       -2.18990
Br         3.17070        0.90430        2.70110
Br         0.43210       -0.36660        3.46610
Br         2.98520       -2.16370        3.18960
F          1.73740       -7.21870        1.54180
F          0.45750       -6.23960        3.12430
H         -0.29140       -7.36160        1.60070
