17
TSA8_9_H_Cl_CHF2
C          3.19390        1.01430       -1.68280
C          1.71840        0.70020       -1.63880
H          3.69940        0.45440       -0.86600
H          3.57720        0.63420       -2.65390
Cl         1.19510       -0.96970       -1.76890
C          3.52860        2.51980       -1.56000
C          3.09570        3.05530       -0.21160
C          2.20590        4.04570       -0.09330
O          0.87740        1.57900       -1.52880
C          5.03710        2.76130       -1.73470
H          3.00810        3.06500       -2.38010
H          3.52250        2.62420        0.68980
H          1.75600        4.50520       -0.96800
H          1.92140        4.40350        0.89080
F          5.76210        2.09410       -0.76120
F          5.45190        2.33010       -2.98270
H          5.25200        3.84870       -1.65630
