20
TSA8_9_NH2_OMe_Cl
C          2.87090        0.34210       -0.59190
C          2.03950       -0.77480       -1.20560
N          2.02120        1.42780       -0.08830
H          3.41440       -0.07200        0.28650
O          2.66040       -1.89130       -1.66740
C          3.95110        0.88070       -1.57370
C          3.42220        1.31130       -2.92680
C          2.63800        2.37740       -3.10970
O          0.82280       -0.66400       -1.28470
Cl         5.20300       -0.37490       -1.83480
H          4.48730        1.73300       -1.10250
H          3.71290        0.74320       -3.80660
H          2.30420        2.63270       -4.11040
H          2.33680        3.01520       -2.28880
H          1.34150        1.74450       -0.81230
H          1.46600        1.07790        0.72600
C          2.04430       -2.94110       -2.32150
H          2.20270       -3.87450       -1.74410
H          2.50240       -3.05880       -3.32540
H          0.95250       -2.78270       -2.45220
