20
TSA8_9_NH2_OMe_Cl
C          1.78950       -0.06080        0.12180
C          1.74250       -0.55980       -1.13010
N          1.57010        1.29980        0.45940
H          1.98330       -0.75190        0.93850
O          1.88580       -1.90350       -1.26530
C          4.77140        1.30130       -2.41010
C          3.69680        0.77840       -3.00960
C          2.30520        1.25230       -2.69350
O          1.52740        0.19530       -2.24850
Cl         6.37890        0.71890       -2.80560
H          4.66930        2.09120       -1.67140
H          3.82330       -0.01000       -3.74530
H          1.85540        1.64540       -3.62880
H          2.33120        2.08720       -1.97410
H          1.22820        1.99130       -0.21630
H          1.64410        1.58690        1.44520
C          2.03480       -2.54100       -2.47560
H          2.05020       -3.63790       -2.30870
H          2.99980       -2.24180       -2.94010
H          1.19490       -2.29280       -3.15780
