23
TSA8_9_CCl3_CH2F_CHF2
C          1.47940       -2.05960        0.15620
C          2.51950       -1.99620        1.29360
C          1.99430       -1.40490       -1.18200
H          0.64450       -1.42210        0.51300
C          3.12000       -0.70440        1.77710
C          0.86490       -3.52020        0.02890
C         -0.48560       -3.52980       -0.66960
C         -1.53830       -2.84600       -0.20590
O          2.84150       -3.01290        1.89070
C          1.77290       -4.59340       -0.62880
H          0.64780       -3.87510        1.06160
H         -0.62390       -4.12240       -1.57050
H         -1.47380       -2.24910        0.69720
H         -2.48580       -2.88880       -0.73370
Cl         0.86410       -1.59620       -2.55190
Cl         2.15530        0.36700       -1.01700
Cl         3.59280       -2.03410       -1.67830
F          2.11740        0.15890        2.17840
H          3.73750       -0.23300        0.98950
H          3.79220       -0.89060        2.64220
F          1.95960       -4.35490       -1.97750
F          3.00240       -4.69850       -0.01030
H          1.27130       -5.58150       -0.54110
