23
TSA8_9_CCl3_CH2F_CHF2
C          2.16120       -0.13040       -0.14310
C          2.14710       -1.00000        0.91360
C          1.73110       -0.16870       -1.60410
H          2.61250        0.83520        0.08080
C          2.80310       -0.52440        2.18460
C          0.35490       -5.26660        0.10970
C          0.82950       -4.07080       -0.26910
C          0.47860       -2.80050        0.46200
O          1.63100       -2.26060        0.98880
C          0.74110       -6.51790       -0.62090
H         -0.31390       -5.34750        0.96250
H          1.50350       -4.02320       -1.11700
H         -0.19800       -3.03820        1.31070
H         -0.07510       -2.07490       -0.15920
Cl         1.17110       -1.68150       -2.33600
Cl         0.47550        1.06700       -1.85170
Cl         3.14720        0.30750       -2.57450
F          2.16640        0.61090        2.65550
H          3.87400       -0.29620        1.99620
H          2.74880       -1.30930        2.96860
F          0.33900       -6.43690       -1.94190
F          2.11220       -6.69260       -0.56620
H          0.24850       -7.39330       -0.14750
