21
TSA8_9_H_OMe_CF3
C          2.00530        0.07860       -0.00400
C          1.78050       -0.60060       -1.13970
H          2.01750        1.16200        0.02970
H          2.16900       -0.45640        0.92530
O          1.76050       -1.95450       -1.08230
C          3.83270       -0.00090       -4.14520
C          3.58060        0.89150       -3.17440
C          2.16310        1.18980       -2.77250
O          1.55670        0.02530       -2.33120
C          5.22920       -0.33410       -4.57650
H          3.00380       -0.50210       -4.64130
H          4.39750        1.40430       -2.67330
H          1.62100        1.55830       -3.66700
H          2.11990        1.98920       -2.00550
C          1.70790       -2.75260       -2.20370
H          1.70970       -3.81840       -1.89370
H          2.60090       -2.56970       -2.83990
H          0.78550       -2.54520       -2.78550
F          5.86600        0.80430       -5.03510
F          5.93590       -0.86010       -3.51040
F          5.18760       -1.26910       -5.59470
