21
TSA8_9_H_OMe_CF3
C          3.28470       -0.41800       -1.60350
C          1.74370       -0.48400       -1.38800
H          3.67430        0.49500       -1.10270
H          3.78120       -1.29520       -1.13570
O          1.25870       -1.76600       -1.02670
C          3.56830       -0.29640       -3.10880
C          2.85810        0.95780       -3.66820
C          1.58160        1.29100       -2.87250
O          0.95580        0.11000       -2.42050
C          5.06950       -0.29290       -3.43400
H          3.11860       -1.17980       -3.60770
H          3.49230        1.87100       -3.65600
H          0.88860        1.87600       -3.51150
H          1.82250        1.94440       -2.00050
C          1.33980       -2.67220       -2.10540
H          0.79090       -3.59380       -1.82340
H          2.39140       -2.97320       -2.29630
H          0.84600       -2.28410       -3.02300
F          5.69520        0.78670       -2.83450
F          5.65320       -1.46050       -2.97560
F          5.25230       -0.21640       -4.80340
