19
TSA8_9_Br_OH_OMe
C          2.16120       -2.27260        0.30960
C          1.09250       -2.38920        1.36470
Br         1.33800       -1.44830       -1.25030
H          2.94800       -1.58120        0.68380
O          1.22360       -1.71670        2.52750
C          2.81130       -3.65580        0.03840
C          3.99270       -3.57670       -0.91330
C          3.88520       -3.29990       -2.21640
O          0.10880       -3.08920        1.17110
O          3.27580       -4.15360        1.28520
H          2.02620       -4.32140       -0.39600
H          4.98470       -3.79220       -0.52450
H          2.92930       -3.11560       -2.68780
H          4.77510       -3.27810       -2.83710
H          0.55130       -1.77280        3.22120
C          3.30750       -5.56560        1.28030
H          2.29430       -5.99630        1.11970
H          3.64720       -5.90990        2.27850
H          4.03670       -5.94970        0.53410
