19
TSA8_9_Br_OH_OMe
C          2.61860       -2.47910        1.24230
C          1.30250       -1.97500        0.62790
Br         4.04430       -1.17430        0.95860
H          2.49910       -2.61380        2.33880
O          0.90640       -0.77360        1.21830
C          2.94150       -3.83910        0.59770
C          2.92260       -3.70640       -0.93370
C          1.58870       -3.07670       -1.36300
O          1.43270       -1.80250       -0.76860
O          4.20700       -4.29330        1.04430
H          2.11720       -4.53080        0.90430
H          3.75950       -3.05970       -1.27610
H          0.72990       -3.74160       -1.11590
H          1.59550       -2.95620       -2.46620
H          0.01960       -0.97090        1.61350
C          4.25040       -5.70370        1.04930
H          3.88330       -6.13860        0.09240
H          3.68410       -6.10580        1.91700
H          5.30820       -6.02100        1.15480
