20
TSA8_9_CH2F_CN_NO2
C          1.34120       -1.27180       -1.54800
C          2.28290       -2.13010       -0.73800
C          1.97190        0.10760       -1.83840
H          0.45740       -1.08210       -0.89850
C          1.87170       -2.57550        0.57190
C          0.80390       -2.03220       -2.80630
C         -0.50640       -1.43910       -3.27060
C         -1.62940       -1.66130       -2.57560
O          3.34500       -2.51330       -1.20200
N          1.74430       -2.10310       -3.91420
H          0.56360       -3.07750       -2.50140
H         -0.55820       -0.86020       -4.18710
H         -1.61270       -2.27220       -1.67520
H         -2.57680       -1.25870       -2.91310
F          3.20100       -0.01020       -2.46650
H          2.14270        0.64570       -0.88160
H          1.29380        0.72530       -2.46360
N          1.53850       -2.93850        1.62020
O          2.07670       -1.11740       -4.50020
O          2.09110       -3.27910       -4.39270
