20
TSA8_9_CH2F_CN_NO2
C          1.64120       -0.08310        0.04950
C          1.55230       -1.42460       -0.12890
C          1.77770        0.89010       -1.09560
H          1.59350        0.32940        1.05000
C          1.35580       -2.33890        0.96210
C          0.28070       -2.94470       -4.40750
C          0.68010       -2.01480       -3.53360
C          0.39150       -2.11600       -2.07910
O          1.56160       -1.94600       -1.37290
N          0.55540       -2.81580       -5.79620
H         -0.27670       -3.80980       -4.05500
H          1.21520       -1.13390       -3.87360
H         -0.11510       -3.05990       -1.78050
H         -0.29510       -1.28100       -1.87030
F          3.11080        1.20260       -1.26310
H          1.21010        1.82010       -0.87520
H          1.37560        0.49510       -2.05160
N          1.19600       -3.02480        1.88270
O          1.16030       -1.87630       -6.21960
O          0.15270       -3.75180       -6.62560
