17
TSA8_9_I_H_CHF2
C          2.06450        1.91860        1.73690
C          0.68200        2.42070        1.39820
I          2.18970       -0.02770        0.82530
H          2.81110        2.57240        1.23640
H          0.40920        2.53270        0.35380
C          2.39830        1.85700        3.25780
C          3.74480        1.19020        3.45220
C          3.88480        0.06060        4.15370
O         -0.15670        2.65390        2.25320
C          2.48110        3.25140        3.92360
H          1.61200        1.26030        3.77270
H          4.62810        1.64310        3.00970
H          3.03070       -0.42610        4.61390
H          4.86700       -0.38560        4.27060
F          3.44030        4.03580        3.30470
F          1.27460        3.92110        3.89980
H          2.76430        3.12850        4.99160
