19
TSA8_9_Me_CN_CN
C          2.14580        1.48710       -0.59610
C          0.92850        0.75720       -1.27630
C          1.97230        1.35680        0.93690
H          3.08050        0.97530       -0.93140
C          1.32320       -0.64470       -1.53410
C          2.24880        2.99550       -0.97810
C          1.81620        3.23360       -2.40500
C          0.42390        2.64710       -2.53130
O          0.54120        1.25080       -2.54180
C          3.59680        3.55520       -0.78850
H          1.54210        3.58920       -0.35770
H          2.49380        2.73170       -3.13700
H         -0.01890        2.96520       -3.49320
H         -0.26340        3.00590       -1.72540
H          1.18000        2.05870        1.29070
H          2.90770        1.59610        1.48240
H          1.63440        0.33890        1.22830
N          1.68360       -1.71720       -1.78510
N          4.64420        4.02940       -0.65150
