20
TSA8_9_Cl_Et_H
C          2.37580       -0.02870        1.02940
C          1.27000        0.94640        1.36780
Cl         1.66130       -1.55550        0.43460
H          2.97090        0.39260        0.19040
C          1.20660        2.30320        0.71700
C          3.38430       -0.30190        2.16880
C          2.82260       -0.92730        3.42220
C          2.07260       -0.24960        4.29640
O          0.38340        0.62090        2.14220
H          4.13580       -1.00950        1.75550
H          3.92680        0.62960        2.44030
H          3.07740       -1.95870        3.64790
H          1.82990        0.79610        4.14090
H          1.71200       -0.73830        5.19510
C          2.40840        3.15870        1.11030
H          0.28390        2.83200        1.04270
H          1.16960        2.18370       -0.38680
H          2.43670        3.29180        2.21330
H          2.32530        4.15770        0.63340
H          3.35730        2.68870        0.77760
