20
TSA8_9_Cl_Et_H
C          2.34840       -0.26700        0.86530
C          1.28820        0.73190        1.36970
Cl         1.54350       -1.84110        0.59020
H          2.75380        0.05020       -0.11840
C          1.38140        2.21240        0.94010
C          3.47510       -0.42050        1.88740
C          2.87620       -0.73320        3.25570
C          1.88430        0.37290        3.62680
O          0.81960        0.49130        2.69210
H          4.17800       -1.22310        1.57610
H          4.05140        0.52380        1.96050
H          2.35400       -1.71490        3.24490
H          2.42240        1.32870        3.76300
H          1.45180        0.12260        4.61730
C          2.39490        3.07910        1.68050
H          0.37900        2.67280        1.06890
H          1.62080        2.23750       -0.14460
H          2.11240        3.19390        2.74480
H          2.38820        4.09760        1.23800
H          3.41930        2.66980        1.58700
