20
TSA8_9_Me_CBr3_H
C          2.69650       -1.17150       -0.52750
C          1.28550       -1.62420       -0.05730
C          2.57570        0.10230       -1.38350
H          3.32380       -0.84120        0.32710
C          1.19160       -2.35260        1.30500
C          3.43390       -2.30980       -1.26070
C          2.49260       -3.26320       -2.01010
C          1.11540       -2.64750       -2.24800
O          0.45730       -2.23980       -1.05220
H          3.98250       -2.93480       -0.52400
H          4.20940       -1.89050       -1.93620
H          2.32190       -4.17470       -1.40060
H          0.49080       -3.42920       -2.72930
H          1.15990       -1.82210       -2.97940
H          1.98650       -0.01890       -2.30590
H          3.58780        0.45740       -1.67390
H          2.09650        0.90570       -0.78400
Br        -0.67580       -2.63680        1.74680
Br         2.07360       -4.07750        1.36900
Br         1.92550       -1.24510        2.72020
