23
TSA8_9_OMe_NO2_CF3
C          1.29360        1.40210        0.52340
C          1.71650        1.00900       -0.88350
O          2.42020        1.24420        1.37400
H          0.42250        0.78280        0.85130
N          1.09350        0.01170       -1.57340
C          0.81110        2.87710        0.55590
C         -0.41910        3.02420       -0.31740
C         -0.44360        3.82200       -1.38830
O          2.64580        1.61350       -1.40390
C          0.47190        3.35200        1.98450
H          1.63150        3.52950        0.17830
H         -1.31270        2.45910       -0.06570
H          0.42620        4.40240       -1.67800
H         -1.34700        3.89510       -1.98540
C          2.24020        0.14980        2.24730
H          1.45280        0.37580        2.99980
H          3.18830       -0.02440        2.79560
H          2.01020       -0.78550        1.68890
O          1.45350       -0.26930       -2.67730
O          0.09270       -0.65520       -1.03910
F         -0.51860        2.56130        2.54210
F          1.59420        3.30310        2.79210
F          0.02950        4.66310        1.94690
