23
TSA8_9_OMe_NO2_CF3
C          1.52210       -0.08420       -0.09900
C          1.39120        0.72220       -1.16410
O          1.52690        0.45130        1.14520
H          1.60490       -1.16020       -0.22500
N          1.35870        0.20240       -2.49280
C          0.69430        4.20820        0.90840
C         -0.16280        3.31740        0.38350
C          0.07630        2.72290       -0.97290
O          1.28560        2.05670       -0.95620
C          0.51930        4.81460        2.27410
H          1.56590        4.51030        0.33350
H         -1.04090        2.99880        0.93720
H          0.10300        3.52350       -1.74290
H         -0.76170        2.03040       -1.21560
C          1.57580       -0.31920        2.28430
H          1.56220        0.34730        3.17110
H          2.50600       -0.92410        2.29890
H          0.68900       -0.98790        2.32740
O          1.24800        0.94760       -3.41890
O          1.46150       -1.09070       -2.71500
F         -0.61360        4.33850        2.91210
F          1.62550        4.50970        3.04500
F          0.42070        6.18740        2.15130
