23
TSA8_9_OMe_NO2_CF3
C          1.15230        1.60640        0.37760
C          1.51980        1.47110       -1.13210
O          2.18450        1.00260        1.14220
H          0.14080        1.15950        0.55290
N          1.24890        0.14230       -1.64500
C          1.04430        3.11460        0.68520
C         -0.06490        3.73360       -0.20020
C         -0.24750        2.95690       -1.51470
O          0.99420        2.48930       -1.98970
C          0.80060        3.44710        2.16960
H          2.01130        3.57900        0.38690
H         -1.06170        3.75790        0.29220
H         -0.72330        3.61660       -2.26910
H         -0.94140        2.09570       -1.37390
C          1.66380        0.02860        2.02160
H          1.05680        0.50040        2.82350
H          2.51360       -0.49300        2.50760
H          1.07940       -0.74680        1.47910
O          0.54770       -0.00850       -2.59860
O          1.83380       -0.90260       -1.10150
F         -0.37100        2.85820        2.61330
F          1.85390        2.99780        2.94510
F          0.70210        4.81820        2.33040
