23
TSA8_9_I_Et_Me
C          2.88320       -1.63790        2.01560
C          1.37700       -1.37600        1.67750
I          4.12660       -1.13480        0.32430
H          3.22790       -0.94190        2.81170
C          0.66470       -0.72880        2.87660
C          3.03290       -3.09950        2.47120
C          2.55910       -4.05200        1.35690
C          1.44110       -3.41280        0.51610
O          0.65380       -2.55700        1.31180
C          4.44140       -3.45320        2.95430
H          2.34460       -3.23150        3.33590
H          3.36720       -4.35570        0.65570
H          0.81320       -4.21240        0.07270
H          1.85260       -2.84420       -0.34700
C         -0.78890       -0.39150        2.55590
H          1.18670        0.21520        3.14480
H          0.69470       -1.41360        3.75200
H         -0.84000        0.30650        1.69260
H         -1.25910        0.09380        3.43690
H         -1.36220       -1.31210        2.31750
H          4.73650       -2.78150        3.78800
H          5.18240       -3.35420        2.13380
H          4.46080       -4.50060        3.32430
