17
TSA8_9_NH2_Cl_CN
C          2.57110        0.73220       -1.60590
C          1.21750       -0.04720       -1.58560
N          2.62580        1.69030       -0.49140
H          3.42580        0.02920       -1.48110
Cl         1.52980       -1.78060       -1.87760
C          2.67570        1.42640       -2.97640
C          1.53030        2.42580       -3.11210
C          0.20400        1.78890       -2.65990
O          0.29180        0.37790       -2.58970
C          3.96650        2.06030       -3.27650
H          2.54490        0.64270       -3.75470
H          1.70540        3.34230       -2.49980
H         -0.55850        2.07030       -3.41460
H         -0.15390        2.19580       -1.68910
H          2.80550        1.16910        0.39760
H          1.70370        2.16710       -0.36170
N          4.96660        2.57200       -3.55530
