20
TSA8_9_Et_Cl_Br
C          1.69470        0.06430        0.23640
C          1.25430        0.19210        1.51570
C          2.04310       -1.16600       -0.56750
H          1.80130        0.98940       -0.32520
Cl         0.92010        1.83000        2.06150
C          3.36460       -2.92320        3.64380
C          2.79950       -2.33650        2.58300
C          1.30930       -2.13000        2.48780
O          1.01070       -0.78410        2.44110
Br         5.26120       -3.14880        3.72680
H          2.76370       -3.27710        4.47610
H          3.43750       -1.99430        1.77890
H          0.82160       -2.54380        3.39610
H          0.84770       -2.67220        1.64130
C          3.47480       -1.07190       -1.08770
H          1.35590       -1.20960       -1.43920
H          1.94060       -2.11200       -0.02950
H          3.60280       -0.16000       -1.70960
H          3.70180       -1.96000       -1.71480
H          4.19670       -1.03680       -0.24520
