20
TSA8_9_Et_Cl_Br
C          2.42970       -0.55660        1.21600
C          0.97280       -0.28420        1.72120
C          2.35470       -1.19680       -0.19960
H          2.95080        0.41840        1.08590
Cl         0.84080        1.37720        2.35940
C          3.14510       -1.37740        2.31350
C          2.40190       -2.69290        2.58060
C          0.88100       -2.49970        2.44890
O          0.52370       -1.16970        2.74950
Br         5.05560       -1.65830        2.10880
H          3.06550       -0.77200        3.24410
H          2.70910       -3.52130        1.90790
H          0.36550       -3.20020        3.13780
H          0.51140       -2.76390        1.43420
C          3.68990       -1.30060       -0.93410
H          1.71150       -0.53720       -0.82500
H          1.88360       -2.19890       -0.18020
H          4.17660       -0.30480       -0.99490
H          3.50880       -1.66670       -1.96690
H          4.36610       -2.02700       -0.45220
