20
TSA8_9_OH_CF3_NH2
C          2.98360        1.73040        0.03590
C          1.41640        1.68230        0.11050
O          3.53310        0.67760        0.78640
H          3.34320        1.63400       -1.01460
C          0.76200        2.11770       -1.20730
C          3.44800        3.07120        0.62520
C          2.97630        3.19990        2.08980
C          1.67170        2.41860        2.31970
O          0.85910        2.46900        1.16850
N          4.89570        3.24690        0.50990
H          2.95570        3.87470        0.03710
H          3.71680        2.81440        2.82460
H          1.13390        2.84660        3.19090
H          1.87890        1.35560        2.58430
H          3.25230       -0.16460        0.34180
F         -0.61110        1.99970       -1.09700
F          1.07450        3.43230       -1.50280
F          1.18990        1.30450       -2.24130
H          5.39510        2.54010        1.09650
H          5.15440        4.20280        0.84680
