20
TSA8_9_CCl3_CHF2_I
C          1.68420       -1.34240       -1.21850
C          0.77020       -1.34840        0.03590
C          1.56770        0.05520       -1.92760
H          2.74430       -1.40270       -0.88680
C          1.23730       -2.18640        1.24050
C          1.37260       -2.63970       -2.02910
C         -0.12220       -2.79290       -2.28890
C         -0.88500       -2.69010       -0.96170
O         -0.61310       -1.47830       -0.27520
I          2.48220       -3.00970       -3.82780
H          1.66460       -3.50270       -1.39660
H         -0.48160       -2.04270       -3.01640
H         -0.68120       -3.56770       -0.31630
H         -1.97060       -2.73110       -1.18780
Cl        -0.05810        0.47060       -2.53960
Cl         2.00300        1.33530       -0.75680
Cl         2.72300        0.25230       -3.26930
F          0.39090       -1.96500        2.31060
F          1.28300       -3.54020        0.97070
H          2.25730       -1.85770        1.52890
