17
TSA8_9_CH2F_H_I
C          1.65510        1.41670        1.57380
C          1.23320        1.77640        0.13820
C          1.25710       -0.03880        1.88460
H          2.76160        1.48300        1.65880
H          1.66110        2.74800       -0.19900
C          1.01810        2.45740        2.52280
C         -0.49200        2.54150        2.28800
C         -0.74810        2.79050        0.79470
O         -0.17890        1.76330       -0.00110
I          1.45410        2.12260        4.59660
H          1.44810        3.45440        2.27990
H         -0.99050        1.60100        2.60330
H         -0.36330        3.78910        0.48590
H         -1.84460        2.80710        0.62430
F          1.88990       -0.89570        1.00120
H          0.16250       -0.19460        1.79770
H          1.57040       -0.31620        2.91140
