17
TSA8_9_F_I_CHF2
C          1.88310        0.07550       -0.18710
C          1.40620        0.93740       -1.10350
F          2.39750        0.46910        1.00610
H          1.84810       -0.98920       -0.39230
I          0.60570        0.14610       -2.89010
C          4.23910        4.10130       -0.49490
C          3.51620        3.01110       -0.19940
C          2.02080        3.07320       -0.01510
O          1.38620        2.29490       -0.96490
C          5.72380        4.02000       -0.68920
H          3.75430        5.06750       -0.60420
H          4.01890        2.05400       -0.09730
H          1.66660        4.11910       -0.14230
H          1.73080        2.76020        1.00940
F          6.32810        3.56100        0.46700
F          6.01610        3.16290       -1.73440
H          6.12270        5.02810       -0.92860
