22
TSA8_9_I_Et_NH2
C          3.10390       -0.43050        1.69540
C          1.54440       -0.32870        1.74710
I          3.70040       -1.22550       -0.21720
H          3.56630        0.57930        1.73140
C          1.04050        1.05060        2.20610
C          3.57850       -1.28970        2.88030
C          2.92060       -2.68340        2.84000
C          1.50230       -2.60050        2.24910
O          0.92480       -1.34590        2.53760
N          5.03490       -1.37840        2.95870
H          3.21720       -0.78810        3.80240
H          3.49000       -3.43070        2.24550
H          0.88000       -3.41960        2.66420
H          1.51600       -2.76410        1.14700
C          1.45020        1.40470        3.63710
H         -0.06880        1.05410        2.14260
H          1.42400        1.83070        1.51430
H          1.07170        0.64360        4.35160
H          1.02320        2.39200        3.91080
H          2.55390        1.47620        3.72580
H          5.41570       -1.90860        2.14360
H          5.30150       -1.88130        3.83580
