21
TSA8_9_CH2F_CH2F_OH
C          2.68250        1.07940        0.55580
C          1.32230        1.68170        0.25970
C          2.53200       -0.43550        0.79340
H          3.29780        1.21480       -0.36260
C          1.08050        2.36500       -1.05660
C          3.46860        1.79450        1.69860
C          2.89940        1.62580        3.09460
C          1.78600        2.22740        3.52160
O          0.40480        1.57470        1.05910
O          4.78040        1.28840        1.69910
H          3.51760        2.88290        1.45370
H          3.45090        1.01790        3.80720
H          1.21540        2.89040        2.88430
H          1.45050        2.07620        4.54270
F          3.76680       -1.04310        0.93110
H          2.01460       -0.90120       -0.07270
H          1.92950       -0.63040        1.70640
F         -0.22280        2.82290       -1.14320
H          1.26620        1.65020       -1.88550
H          1.77270        3.22680       -1.15840
H          5.36600        1.98860        2.09120
