21
TSA8_9_CH2F_CH2F_OH
C          1.75300        0.18990       -0.00390
C          1.44000        1.51590        0.07720
C          2.10310       -0.80190        1.07290
H          1.74300       -0.26440       -0.99090
C          1.09870        2.24180       -1.19820
C          4.17890        3.03400        2.97670
C          3.41160        2.09000        2.40990
C          1.90650        2.15000        2.46960
O          1.39290        2.29930        1.19760
O          5.52700        2.98320        2.89490
H          3.72420        3.86480        3.50780
H          3.88450        1.27100        1.87800
H          1.59020        3.03800        3.05780
H          1.45570        1.29120        2.99640
F          3.35280       -1.33000        0.81030
H          1.35880       -1.62560        1.03840
H          2.10730       -0.42540        2.09640
F         -0.18000        2.75870       -1.10700
H          1.15440        1.59130       -2.09660
H          1.81650        3.07780       -1.33750
H          5.99230        2.27950        2.42010
