17
TSA8_9_F_CCl3_I
C          3.11280        1.75940        0.37740
C          1.61410        1.79680        0.16430
F          3.57810        0.47700        0.13680
H          3.59820        2.44370       -0.35120
C          1.00390        2.69350       -0.89110
C          3.51700        2.22060        1.78950
C          3.00270        1.29190        2.86090
C          2.18130        1.71190        3.82750
O          0.89510        1.08190        0.84750
I          5.65130        2.29310        1.94160
H          3.14340        3.25710        1.94640
H          3.31020        0.25030        2.84720
H          1.85120        2.74490        3.87610
H          1.83250        1.01450        4.58210
Cl         1.40940        4.39550       -0.55140
Cl         1.63460        2.25500       -2.49940
Cl        -0.77700        2.54870       -0.93780
