17
TSA8_9_F_CCl3_I
C          2.12380        0.55170       -0.07080
C          1.54700        1.75140        0.18890
F          2.59170       -0.26910        0.90280
H          2.23130        0.18380       -1.08350
C          1.01870        2.64850       -0.92010
C          4.06770        3.09530        3.36110
C          3.50160        2.20800        2.53680
C          2.03670        1.86630        2.62400
O          1.39830        2.24310        1.45630
I          6.11540        3.57060        3.18060
H          3.48730        3.59690        4.12990
H          4.10990        1.73210        1.77450
H          1.56590        2.42540        3.46010
H          1.88320        0.78990        2.84150
Cl         1.90140        4.19410       -0.85880
Cl         1.17750        2.00380       -2.58340
Cl        -0.70690        2.98360       -0.63530
