21
TSA8_9_OH_Cl_Et
C          1.74090        0.06940       -0.16590
C          1.37900        0.90660       -1.16080
O          2.06350        0.49970        1.06780
H          1.76020       -0.99910       -0.36250
Cl         0.94410        0.20220       -2.70940
C          4.13790        3.84740        0.56040
C          3.36590        3.08960       -0.23160
C          1.86580        3.09110       -0.09740
O          1.30300        2.26610       -1.05300
C          5.63550        3.88710        0.40330
H          3.67840        4.46830        1.32470
H          3.82370        2.47510       -1.00220
H          1.50910        4.12520       -0.27770
H          1.53860        2.80520        0.92330
H          2.28380       -0.13210        1.76750
C          6.28160        2.52230        0.64010
H          6.05330        4.60810        1.13790
H          5.88790        4.24260       -0.61920
H          6.05470        2.16350        1.66660
H          7.38100        2.61120        0.52570
H          5.91360        1.77810       -0.09690
