17
TSA8_9_Br_CH2F_F
C          3.05740       -1.46370        0.04720
C          1.57300       -1.61920        0.28050
Br         3.42830        0.34380       -0.57130
H          3.56550       -1.57620        1.03020
C          1.06430       -1.96810        1.65060
C          3.70420       -2.51740       -0.88580
C          3.25220       -2.48990       -2.32790
C          2.05290       -2.91780       -2.73190
O          0.77840       -1.41890       -0.62490
F          5.07080       -2.29180       -0.87340
H          3.54120       -3.53830       -0.47680
H          3.95360       -2.14770       -3.08400
H          1.32780       -3.31790       -2.03350
H          1.79770       -2.89210       -3.78640
F         -0.31790       -2.04090        1.65970
H          1.38840       -1.19230        2.37560
H          1.47850       -2.95050        1.96000
