17
TSA8_9_CBr3_I_H
C          1.66100       -0.98260        1.22050
C          0.79610        0.26150        1.19500
C          1.63270       -1.73580       -0.14620
H          2.70710       -0.62810        1.35030
I          1.67060        2.16240        1.48260
C          1.39790       -1.88260        2.46740
C          0.03520       -2.51850        2.59820
C         -1.06290       -1.83040        2.92560
O         -0.40040        0.20120        0.96300
H          2.13980       -2.70620        2.44540
H          1.60460       -1.30830        3.39690
H         -0.04900       -3.59310        2.46570
H         -1.02810       -0.76440        3.11840
H         -2.01290       -2.34510        3.02770
Br         2.16340       -0.53690       -1.58360
Br         2.91320       -3.19860       -0.17370
Br        -0.10690       -2.46730       -0.62280
