17
TSA8_9_CBr3_I_H
C          1.59580       -1.13270        1.27960
C          0.49300       -0.05590        1.34220
C          1.64980       -1.82730       -0.11660
H          2.58290       -0.62860        1.37400
I          0.85780        1.52940        2.75900
C          1.44180       -2.06190        2.50700
C          0.00650       -2.55990        2.66940
C         -0.94750       -1.35950        2.63630
O         -0.81070       -0.61220        1.43760
H          2.15950       -2.90690        2.49020
H          1.66920       -1.46540        3.41770
H         -0.25930       -3.29070        1.88430
H         -0.80070       -0.71660        3.53020
H         -1.98840       -1.73890        2.70110
Br         2.02210       -0.48660       -1.47510
Br         3.12130       -3.09380       -0.18930
Br         0.04080       -2.74850       -0.70480
