17
TSA8_9_CH2F_Br_H
C          1.81340       -0.03110        0.01620
C          1.08020       -0.26210        1.11620
C          2.22430       -1.10950       -0.94740
H          2.12840        0.98440       -0.20290
Br         0.63210        1.23630        2.24060
C         -0.02770       -4.06470        3.56720
C         -0.37010       -3.31650        2.51420
C         -0.14310       -1.83380        2.48540
O          0.67010       -1.52110        1.41850
H         -0.20720       -5.13490        3.55360
H          0.43020       -3.62280        4.44720
H         -0.82790       -3.79360        1.65230
H          0.32940       -1.48850        3.43220
H         -1.12500       -1.32670        2.36710
F          3.60350       -1.15210       -1.02360
H          1.81390       -0.87160       -1.95060
H          1.85290       -2.11190       -0.64840
