19
TSA8_9_CBr3_I_NH2
C          1.65070       -1.61920        1.52060
C          1.33180       -0.13510        1.53260
C          1.66340       -2.16880        0.05030
H          2.69800       -1.71900        1.88040
I          2.77820        1.26030        2.18610
C          0.77200       -2.33450        2.60690
C         -0.72400       -2.26620        2.36840
C         -1.54470       -1.61980        3.20230
O          0.23960        0.27910        1.17680
N          1.17630       -3.72570        2.81520
H          1.00340       -1.79450        3.55550
H         -1.15480       -2.76820        1.51170
H         -1.16690       -1.10890        4.08240
H         -2.61160       -1.60100        3.00530
Br        -0.03830       -2.06440       -0.88490
Br         2.92630       -1.13630       -1.01330
Br         2.31560       -3.99340       -0.08590
H          0.75790       -4.33840        2.07980
H          0.79050       -4.05670        3.73000
