19
TSA8_9_CBr3_I_NH2
C          1.83090       -0.04540        0.02920
C          1.14040       -0.14760        1.18060
C          2.17230       -1.14640       -0.95750
H          2.18820        0.94390       -0.24240
I          0.84600        1.64580        2.29550
C         -0.14870       -3.58230        4.04960
C         -0.46880       -2.93610        2.91890
C         -0.15340       -1.48120        2.72650
O          0.64890       -1.33410        1.61710
N         -0.45430       -4.95560        4.21630
H          0.35050       -3.05650        4.85860
H         -0.97140       -3.46760        2.11560
H          0.36230       -1.06980        3.62240
H         -1.10490       -0.92870        2.57150
Br         1.42340       -0.65920       -2.67450
Br         4.09740       -1.21910       -1.13900
Br         1.55890       -2.94980       -0.55340
H         -0.92620       -5.49180        3.47350
H         -0.20320       -5.43170        5.09440
