23
TSA8_9_Et_Cl_Me
C          2.49680       -1.35570        0.71960
C          1.30560       -0.76240        1.44680
C          2.50900       -0.75220       -0.71550
H          3.40230       -0.99600        1.25540
Cl         1.55400        0.26060        2.85300
C          2.45150       -2.91400        0.86670
C          1.35890       -3.53800        0.02660
C          0.32430       -4.18400        0.57280
O          0.16670       -0.98160        1.06660
C          3.78820       -3.61700        0.59000
H          2.26160       -3.11540        1.94710
H          1.41640       -3.46360       -1.05550
H          0.22720       -4.28240        1.64980
H         -0.43930       -4.61940       -0.06310
C          3.73550       -1.05460       -1.56970
H          2.48580        0.35560       -0.60060
H          1.59560       -1.04570       -1.27630
H          4.66550       -0.77920       -1.02910
H          3.67920       -0.45470       -2.50300
H          3.75940       -2.10840       -1.88970
H          4.58890       -3.17770        1.22180
H          4.10160       -3.58090       -0.46280
H          3.69790       -4.69220        0.85550
