20
TSA8_9_CHF2_CBr3_I
C          2.71030       -1.20920       -0.30080
C          1.22810       -1.65550       -0.15630
C          2.74240        0.23200       -0.85030
H          3.17810       -1.12080        0.70120
C          0.80080       -2.42580        1.11750
C          3.54930       -2.18200       -1.17610
C          2.69200       -3.23040       -1.87990
C          1.39780       -2.59610       -2.37730
O          0.56110       -2.08200       -1.34610
I          5.09920       -3.16080       -0.06020
H          4.08580       -1.60470       -1.95960
H          2.42510       -4.06280       -1.20700
H          0.83150       -3.38530       -2.91330
H          1.62190       -1.79980       -3.11580
F          4.04540        0.69760       -0.89300
F          2.19250        0.31810       -2.11520
H          2.16420        0.89660       -0.17310
Br         1.21380       -1.37430        2.69540
Br        -1.12340       -2.67100        1.11240
Br         1.61600       -4.16800        1.34210
