21
TSA8_9_CHF2_OH_CBr3
C          2.48810        1.54790        0.57280
C          1.43700        1.31140       -0.49990
C          2.66790        0.24480        1.38320
H          3.44620        1.71240        0.03740
O          1.76610        1.36020       -1.80950
C          2.15830        2.87060        1.36380
C          0.82870        2.78650        2.09520
C         -0.21830        3.54690        1.75920
O          0.28170        1.06210       -0.19160
C          3.25770        3.41290        2.33150
H          2.08170        3.64560        0.56610
H          0.71470        2.09550        2.92340
H         -0.15920        4.25730        0.94070
H         -1.14930        3.45870        2.30970
F          3.78500        0.29600        2.18900
F          1.55080       -0.05750        2.13980
H          2.83860       -0.59450        0.67440
H          2.66730        1.55020       -2.10730
Br         2.80880        5.23530        2.84510
Br         3.44660        2.43750        4.00700
Br         4.99650        3.51920        1.46970
