21
TSA8_9_CHF2_OH_CBr3
C          2.43830        1.85110        0.67960
C          1.21310        1.69530       -0.26630
C          2.55010        0.56470        1.51640
H          3.35820        1.91210        0.05660
O          1.59780        1.37700       -1.57020
C          2.30360        3.20440        1.45640
C          0.88230        3.38500        2.03370
C         -0.19200        2.88710        1.05170
O          0.33700        2.80730       -0.25640
C          3.40870        3.59820        2.47790
H          2.38040        3.96510        0.64620
H          0.71180        2.91800        3.02630
H         -1.06170        3.57500        1.07710
H         -0.58770        1.89320        1.37470
F          3.73950        0.52310        2.21590
F          1.48520        0.43430        2.38920
H          2.55540       -0.31380        0.83500
H          1.22920        0.47110       -1.72650
Br         3.20140        5.47250        2.95250
Br         3.34620        2.61330        4.15670
Br         5.18300        3.42080        1.70710
