20
TSA8_9_CBr3_CN_NH2
C          2.04210        1.75060       -1.18900
C          1.04110        0.60130       -1.53740
C          2.18760        1.81600        0.39250
H          3.04630        1.52850       -1.61360
C          1.64000       -0.56670       -2.18870
C          1.55760        2.98500       -2.02050
C          0.12640        3.38000       -1.66070
C         -0.71660        2.11160       -1.47490
O         -0.15210        1.02140       -2.19090
N          2.46830        4.13100       -2.08230
H          1.50960        2.60840       -3.07170
H          0.05010        4.01060       -0.74790
H         -1.74910        2.32310       -1.82000
H         -0.81080        1.85550       -0.40090
Br         0.93950        0.68090        1.40370
Br         3.92390        1.11070        0.89970
Br         2.05490        3.57110        1.20620
N          2.13640       -1.49050       -2.67690
H          2.42170        4.71520       -1.22290
H          2.15680        4.74230       -2.87820
