19
TSA8_9_CF3_NH2_Cl
C          1.65480       -1.52950        0.91830
C          0.90800       -0.26700        1.31930
C          1.58300       -1.71990       -0.61810
H          2.73010       -1.39180        1.16970
N          1.56240        0.76660        1.89990
C          1.16420       -2.73950        1.76810
C         -0.29060       -3.08990        1.55890
C         -1.18410       -3.00570        2.55050
O         -0.29420       -0.17660        1.11770
Cl         2.14970       -4.20080        1.47670
H          1.33130       -2.47060        2.83550
H         -0.62770       -3.42690        0.58480
H         -0.89390       -2.67640        3.54350
H         -2.22160       -3.26650        2.36990
F          2.32650       -2.81470       -1.01560
F          0.27960       -1.88250       -1.05140
F          2.10970       -0.60130       -1.24060
H          1.05140        1.61990        2.17090
H          2.57460        0.71870        2.08410
