19
TSA8_9_CF3_NH2_Cl
C          1.92970       -0.08000        0.03770
C          1.30630       -0.50920        1.15620
C          2.08540       -0.87210       -1.23800
H          2.34760        0.92290        0.02900
N          1.22020        0.37040        2.27660
C         -0.14090       -4.62630        2.82310
C         -0.39530       -3.67070        1.92140
C         -0.07250       -2.22960        2.18980
O          0.77080       -1.75840        1.20370
Cl        -0.53320       -6.30350        2.48020
H          0.30730       -4.38510        3.78190
H         -0.85150       -3.93610        0.97240
H          0.40730       -2.12520        3.18850
H         -1.01460       -1.64220        2.17450
F          3.43170       -0.99800       -1.52510
F          1.52910       -2.13560       -1.16300
F          1.47240       -0.18140       -2.26550
H          0.75910        0.09020        3.15100
H          1.63340        1.31410        2.23720
