19
TSA8_9_CF3_NH2_Cl
C          1.65600       -1.65980        0.89370
C          0.77620       -0.51330        1.44440
C          1.44050       -1.78320       -0.63700
H          2.72860       -1.39760        1.02960
N          1.19430       -0.06580        2.77290
C          1.35650       -2.93520        1.72480
C         -0.14390       -3.22350        1.76130
C         -0.87950       -1.96780        2.24600
O         -0.60790       -0.84640        1.41650
Cl         2.26390       -4.37470        1.18350
H          1.67590       -2.74360        2.77280
H         -0.51880       -3.52790        0.76370
H         -0.62830       -1.74810        3.30730
H         -1.97000       -2.17170        2.22150
F          2.26050       -2.75970       -1.17080
F          0.12900       -2.07400       -0.96210
F          1.77310       -0.58040       -1.23620
H          0.58820        0.74000        3.04780
H          2.17310        0.29440        2.70580
