19
TSA8_9_Cl_CHF2_NH2
C          1.86870        0.20550        0.06520
C          1.48160        1.24630        0.83680
Cl         2.12120       -1.43760        0.64100
H          2.00230        0.34890       -1.00270
C          1.22180        2.58450        0.19630
C          3.19270        2.91930        3.54670
C          3.36040        1.63210        3.21370
C          2.18550        0.69870        3.12550
O          1.27740        1.15150        2.18150
N          4.29740        3.80330        3.63090
H          2.19760        3.30100        3.75780
H          4.35500        1.24750        3.00650
H          1.68360        0.66990        4.11580
H          2.53440       -0.32440        2.90790
F         -0.08460        2.96510        0.43600
F          2.07280        3.52740        0.74000
H          1.38600        2.56130       -0.90250
H          5.25650        3.47940        3.43560
H          4.14340        4.78870        3.88760
