21
TSA8_9_CH2F_NH2_NO2
C          1.84620       -0.14620        0.07380
C          1.54000       -1.41100        0.47860
C          1.98520        0.44340       -1.30480
H          2.01140        0.58960        0.85670
N          1.45320       -1.64170        1.87830
C          3.61080       -3.83730       -2.41340
C          2.96950       -2.73860       -1.97590
C          1.49490       -2.75640       -1.65470
O          1.29340       -2.49920       -0.31450
N          5.00480       -3.83760       -2.70340
H          3.05670       -4.76270       -2.54670
H          3.52240       -1.81690       -1.83580
H          1.08200       -3.76740       -1.85970
H          0.90070       -2.07480       -2.28990
F          3.25730        0.96510       -1.44450
H          1.25240        1.27190       -1.40190
H          1.80600       -0.23110       -2.14400
H          1.22420       -2.58300        2.22940
H          1.62220       -0.89080        2.56410
O          5.66450       -2.85120       -2.56860
O          5.57900       -4.94710       -3.11380
