26
TSA8_9_Et_CHF2_Me
C          2.53290        1.21650       -1.21960
C          1.25500        1.09770       -2.03280
C          2.19610        0.96200        0.26960
H          3.21140        0.38440       -1.51650
C          1.08430       -0.02050       -3.02430
C          3.29460        2.55550       -1.52780
C          2.49120        3.82270       -1.27400
C          2.13260        4.24540       -0.05810
O          0.34710        1.89880       -1.86530
C          3.76570        2.55810       -2.99260
H          4.22460        2.60370       -0.92300
H          2.21130        4.44670       -2.11990
H          1.56970        5.16780        0.04500
H          2.40240        3.70800        0.84020
C          3.43350        0.90380        1.16790
H          1.69340       -0.02800        0.34470
H          1.47860        1.71180        0.65660
H          4.13170        0.11770        0.80890
H          3.12450        0.65380        2.20470
H          3.96280        1.87660        1.19640
F         -0.15810        0.04890       -3.63050
F          2.06310        0.05490       -3.99710
H          1.17080       -0.99420       -2.49730
H          2.90510        2.54410       -3.69410
H          4.40870        1.67420       -3.19250
H          4.36790        3.46950       -3.19810
