21
TSA8_9_I_CN_Et
C          1.69480       -0.07520        0.02060
C          1.50790       -1.40360       -0.19520
I          1.89140        1.58820       -1.27630
H          1.59820        0.29480        1.04320
C          1.44730       -2.24400        0.96110
C          3.76620       -0.76330       -3.48360
C          3.04790       -1.76960       -2.96360
C          1.58080       -1.61750       -2.67800
O          1.33900       -2.03400       -1.39140
C          5.21460       -0.90830       -3.89250
H          3.28730        0.18690       -3.68010
H          3.51870       -2.73740       -2.78630
H          1.03230       -2.29290       -3.38830
H          1.19230       -0.60020       -2.85850
N          1.40260       -2.89640        1.91230
C          6.09140        0.14310       -3.22120
H          5.28510       -0.76140       -4.99530
H          5.60790       -1.92160       -3.66010
H          5.75380        1.16420       -3.50350
H          7.14600        0.02200       -3.55320
H          6.04840        0.03250       -2.11910
