15
TSA8_9_Br_F_OH
C          2.74610        1.59030       -0.70310
C          1.24400        1.69220       -0.72380
Br         3.26840       -0.07050        0.16920
H          3.07120        1.51730       -1.76380
F          0.59460        1.75650       -1.91570
C          3.49950        2.80610       -0.10200
C          3.27300        3.04500        1.37770
C          2.13070        3.52100        1.88110
O          0.59240        1.65000        0.30660
O          4.87290        2.58800       -0.30660
H          3.19600        3.71900       -0.66840
H          4.09530        2.86570        2.06520
H          1.28950        3.77010        1.24580
H          2.04100        3.69070        2.94920
H          5.31140        3.47930       -0.32600
