18
TSA8_9_CH2F_F_OH
C          1.77850        0.03550       -0.00290
C          1.08700        1.03090        0.56970
C          2.06590       -1.27260        0.67900
H          2.15040        0.17250       -1.01390
F          0.87360        2.17550       -0.13640
C         -0.16420        2.12730        4.91250
C         -0.51970        1.43120        3.82250
C         -0.15400        1.88380        2.43900
O          0.60190        0.90700        1.82970
O         -0.50070        1.70710        6.15200
H          0.40350        3.04790        4.81430
H         -1.08880        0.51220        3.93120
H          0.42080        2.83650        2.46940
H         -1.08840        2.04880        1.86000
F          3.43350       -1.45540        0.75910
H          1.62510       -2.09600        0.07970
H          1.63940       -1.32040        1.70270
H         -1.00470        0.89510        6.30630
