21
TSA8_9_Me_OMe_I
C          2.81100        0.79300       -0.32270
C          2.30000        0.23970       -1.63360
C          1.63390        1.28610        0.52820
H          3.27830       -0.03770        0.25220
O          2.48820       -1.07320       -1.92070
C          3.92760        1.85640       -0.53580
C          3.54640        3.05400       -1.38170
C          2.68230        3.99190       -0.98340
O          1.72090        0.97300       -2.42500
I          5.62600        0.89860       -1.45070
H          4.29400        2.21670        0.45000
H          4.01800        3.18140       -2.35170
H          2.46320        4.83220       -1.63440
H          2.20320        3.95300       -0.01330
H          1.04380        2.06490        0.00710
H          2.00090        1.68050        1.49960
H          0.94540        0.43920        0.73740
C          2.06890       -1.66630       -3.09250
H          2.34740       -2.73950       -3.07820
H          2.55980       -1.18000       -3.96270
H          0.96530       -1.58270       -3.18980
