21
TSA8_9_Me_OMe_I
C          2.76760        0.73140       -0.22870
C          2.01890        0.61170       -1.57220
C          1.75450        1.05560        0.88360
H          3.21410       -0.24600        0.06080
O          2.84650        0.12970       -2.60210
C          3.87740        1.81020       -0.32860
C          3.65130        2.76960       -1.50810
C          2.15150        3.00900       -1.72860
O          1.38630        1.82490       -1.97480
I          5.81770        0.92040       -0.57000
H          3.93620        2.37590        0.62850
H          4.03560        2.31710       -2.44740
H          2.04780        3.67620       -2.60980
H          1.73140        3.54790       -0.85500
H          1.23400        2.01810        0.71650
H          2.27330        1.10900        1.86480
H          0.98940        0.25270        0.94490
C          2.16840       -0.92470       -3.23820
H          2.29380       -1.86850       -2.66570
H          2.61520       -1.06490       -4.24420
H          1.08920       -0.70210       -3.41460
