17
TSA8_9_F_CCl3_Br
C          2.06700       -2.08480       -0.34960
C          0.86840       -2.44220        0.50390
F          1.70060       -1.01770       -1.15010
H          2.90600       -1.75590        0.29980
C          0.88800       -2.26080        2.01000
C          2.53830       -3.27040       -1.22810
C          3.73260       -2.90490       -2.08040
C          3.67260       -1.99320       -3.05700
O         -0.14680       -2.84240       -0.04910
Br         3.03020       -4.80220       -0.13120
H          1.71380       -3.60040       -1.89700
H          4.67940       -3.41150       -1.91490
H          2.75260       -1.46920       -3.29000
H          4.55720       -1.77410       -3.64620
Cl         2.16350       -3.24690        2.76650
Cl         1.18960       -0.54890        2.40160
Cl        -0.67100       -2.72590        2.75030
