17
TSA8_9_F_CCl3_Br
C          3.02790       -2.09610        0.12080
C          1.50780       -1.73440        0.01080
F          3.77420       -1.06720       -0.42960
H          3.34510       -2.20860        1.17870
C          0.70400       -1.99540        1.29990
C          3.29540       -3.38490       -0.66290
C          2.87040       -3.21530       -2.13130
C          1.67310       -2.25660       -2.24550
O          0.86050       -2.36430       -1.09830
Br         5.14730       -3.95300       -0.54260
H          2.67160       -4.18790       -0.21800
H          3.67870       -2.81300       -2.77870
H          1.09080       -2.49140       -3.16060
H          2.02070       -1.20350       -2.36720
Cl         0.74900       -3.71320        1.78080
Cl         1.33570       -0.99870        2.63860
Cl        -0.99880       -1.52880        1.05100
