20
TSA8_9_CHF2_Br_CHF2
C          1.60740       -0.52730        2.28970
C          1.21260        0.64860        1.41930
C          1.72350       -1.79140        1.40830
H          2.62280       -0.30870        2.68780
Br         2.39850        2.13630        1.22240
C          0.63700       -0.62870        3.51480
C         -0.79440       -0.91010        3.10230
C         -1.78120       -0.03730        3.33020
O          0.14690        0.65970        0.82260
C          1.07100       -1.65070        4.58370
H          0.69100        0.36510        4.01740
H         -1.03200       -1.84810        2.60980
H         -1.59060        0.91230        3.82050
H         -2.79460       -0.27260        3.02230
F          2.55560       -1.53220        0.33200
F          2.27570       -2.84470        2.10870
H          0.73120       -2.09080        1.01180
F          0.29200       -1.48950        5.71660
F          0.92180       -2.95430        4.14830
H          2.12960       -1.47360        4.86920
