20
TSA8_9_CHF2_Br_CHF2
C          1.42920       -0.74120        2.49090
C          1.00880        0.50320        1.68080
C          1.36520       -1.97600        1.56460
H          2.49400       -0.62340        2.78890
Br         1.58470        2.20620        2.44460
C          0.53330       -0.80120        3.76530
C         -0.94690       -0.73410        3.36700
C         -1.18170        0.50180        2.49080
O         -0.36710        0.48450        1.32900
C          0.79020       -1.98410        4.71490
H          0.75790        0.11490        4.35650
H         -1.24920       -1.64750        2.81220
H         -1.02830        1.43490        3.07460
H         -2.24570        0.50560        2.17600
F          2.12350       -1.74050        0.43040
F          1.89200       -3.09050        2.18760
H          0.32610       -2.18980        1.24160
F          0.39850       -3.19000        4.16300
F          2.12800       -2.04110        5.06230
H          0.19370       -1.83720        5.64080
