27
TSA8_9_OMe_Et_CHF2
C          2.47350       -0.42090        1.19940
C          1.25830        0.47280        1.33520
O          2.20290       -1.45180        0.26060
H          3.33400        0.22200        0.88920
C          1.38600        1.94850        1.03300
C          2.87570       -1.04510        2.56290
C          1.82970       -2.02550        3.05310
C          1.17030       -1.85080        4.20180
O          0.18680       -0.00210        1.68500
C          4.23550       -1.76120        2.47960
H          2.99600       -0.21450        3.29640
H          1.60740       -2.90420        2.45340
H          1.35950       -0.98890        4.83410
H          0.43010       -2.57960        4.51610
C          2.66910       -1.09910       -1.02260
H          3.78190       -1.09600       -1.04710
H          2.25050       -0.12390       -1.35620
H          2.32130       -1.86540       -1.74340
C          0.08550        2.72430        1.23790
H          1.71370        2.07090       -0.02150
H          2.16270        2.38260        1.69870
H         -0.71010        2.33040        0.56960
H          0.25180        3.79580        0.99850
H         -0.24690        2.64490        2.29450
F          4.19790       -2.80880        1.57560
F          5.22630       -0.87240        2.10130
H          4.50250       -2.16690        3.47920
