27
TSA8_9_OMe_Et_CHF2
C          1.54160        0.03890        0.01840
C          1.36940        0.78100        1.13860
O          1.49810       -1.31380        0.03310
H          1.69550        0.54650       -0.93010
C          1.38640        2.28640        1.03110
C          3.56340       -1.52460        3.99230
C          2.88950       -1.28550        2.85680
C          1.40570       -1.01680        2.85610
O          1.15980        0.26060        2.38550
C          5.04390       -1.76220        3.98590
H          3.04200       -1.54040        4.94560
H          3.42440       -1.26880        1.91160
H          1.00840       -1.07760        3.89130
H          0.85680       -1.77770        2.26570
C          1.55280       -2.09120       -1.10580
H          2.43020       -2.76660       -1.04790
H          1.63030       -1.47800       -2.03090
H          0.63000       -2.70480       -1.16920
C          0.04250        2.87340        1.44990
H          1.60360        2.62340       -0.00640
H          2.18690        2.68100        1.69280
H         -0.76040        2.50340        0.77680
H          0.08320        3.98060        1.38030
H         -0.19940        2.59180        2.49670
F          5.34390       -2.87250        3.21820
F          5.69570       -0.65560        3.47190
H          5.39670       -1.93500        5.02430
