20
TSA8_9_NO2_OH_CCl3
C          1.79100        0.16520       -0.02820
C          1.53970        1.49380       -0.05670
N          1.66060       -0.65180        1.13450
H          2.10270       -0.31590       -0.95210
O          1.65230        2.17590       -1.21980
C          3.12560        4.89630        1.85320
C          3.02620        3.63980        1.39040
C          2.07540        2.63950        1.99440
O          1.17040        2.17960        1.05360
C          4.09050        5.88720        1.25500
H          2.50030        5.20980        2.68500
H          3.65390        3.31890        0.56340
H          1.50590        3.09370        2.83340
H          2.66960        1.79600        2.40290
O          1.93910       -1.81010        1.06430
O          1.15790       -0.18290        2.25560
H          1.90300        1.75240       -2.05360
Cl         3.97350        7.44330        2.11510
Cl         5.76500        5.29010        1.40120
Cl         3.71270        6.16360       -0.46560
