22
TSA8_9_NH2_Cl_Et
C          3.32960       -0.30700        1.25370
C          1.84320       -0.01750        1.24510
N          3.74970       -0.81290       -0.05620
H          3.85130        0.65820        1.43850
Cl         1.26450        1.62030        1.50910
C          3.71600       -1.26780        2.41760
C          3.12830       -2.65650        2.24660
C          2.24490       -3.16480        3.11150
O          1.03270       -0.90930        1.04800
C          5.24390       -1.34680        2.67310
H          3.29820       -0.80860        3.34350
H          3.42800       -3.26630        1.40030
H          1.91120       -2.59780        3.97500
H          1.84760       -4.16250        2.95500
H          3.56110       -0.08560       -0.78420
H          3.21180       -1.67220       -0.31200
C          6.08770       -1.97450        1.55930
H          5.40680       -1.94680        3.59550
H          5.62980       -0.32280        2.87060
H          5.76670       -3.01620        1.35480
H          7.14950       -2.00090        1.88350
H          6.04410       -1.37760        0.62870
