22
TSA8_9_NH2_Cl_Et
C          1.68870        0.07480        0.16680
C          1.34070        0.17100        1.47610
N          2.26180       -1.04730       -0.48930
H          1.49810        0.94390       -0.45730
Cl         0.61410        1.69090        1.98010
C          4.50260       -1.98360        3.42780
C          3.65880       -1.68780        2.42610
C          2.17670       -1.94980        2.53100
O          1.47550       -0.76340        2.46460
C          5.97770       -1.69830        3.33470
H          4.12330       -2.42680        4.34470
H          4.04930       -1.23260        1.52240
H          1.94800       -2.41450        3.51390
H          1.81170       -2.67310        1.77860
H          2.46890       -0.97320       -1.49550
H          2.46980       -1.94120       -0.04380
C          6.64510       -2.49200        2.21370
H          6.45690       -1.97930        4.29720
H          6.13390       -0.61070        3.16950
H          6.51160       -3.58150        2.38390
H          7.73180       -2.26410        2.19690
H          6.21600       -2.22140        1.22620
