18
TSA8_9_CN_CH2F_F
C          1.99210       -1.71500        0.09930
C          2.40650       -1.46380        1.55340
C          2.60730       -0.80530       -0.88710
H          0.96150       -1.35230        0.14550
C          1.80670       -0.27410        2.25700
C          2.01810       -3.18350       -0.34250
C          0.80220       -3.37790       -1.20760
C         -0.40690       -3.25420       -0.63490
O          2.90920       -2.35650        2.22550
F          3.18510       -3.49650       -1.02750
H          1.91710       -3.89920        0.50210
H          0.89260       -3.57630       -2.27000
H         -0.48170       -3.05500        0.43690
H         -1.31920       -3.32590       -1.20530
N          3.11940       -0.16950       -1.71180
F          0.43440       -0.45380        2.35320
H          2.00310        0.64890        1.67380
H          2.20840       -0.16540        3.28270
