18
TSA8_9_CN_CH2F_F
C          1.69120        0.00370        0.10290
C          1.59400       -0.81070        1.18260
C          1.85660       -0.43040       -1.26410
H          1.59930        1.07670        0.24620
C          1.41890       -0.20520        2.54100
C          1.85970       -5.07590       -0.60050
C          1.83160       -3.74160       -0.60720
C          0.89330       -2.96120        0.25870
O          1.61140       -2.17000        1.12920
F          2.72640       -5.73450       -1.41170
H          1.19960       -5.64760        0.04500
H          2.50560       -3.20070       -1.26070
H          0.24560       -3.63490        0.86250
H          0.21920       -2.35670       -0.37670
N          1.98830       -0.74660       -2.36980
F          0.09480       -0.34790        2.91040
H          1.67740        0.87430        2.54860
H          2.06520       -0.72840        3.27740
