16
TSA8_9_Br_OH_OH
C          1.57090       -0.00140        0.07680
C          2.03340       -1.14940        0.58800
Br         0.89380        0.09260       -1.71500
H          1.61090        0.91670        0.65740
O          2.55320       -1.17810        1.83880
C          2.09170       -4.42460        2.01940
C          3.07230       -3.89380        1.28550
C          2.85810       -3.34620       -0.10040
O          1.97370       -2.28420       -0.15870
O          2.36980       -4.90140        3.25010
H          1.07700       -4.47740        1.63510
H          4.07790       -3.85730        1.69460
H          2.48470       -4.15370       -0.76440
H          3.83600       -3.00260       -0.49540
H          2.58420       -0.39620        2.40910
H          1.67940       -5.29600        3.79960
