24
TSA8_9_OMe_F_Et
C          1.44490       -0.09120       -0.05220
C          1.13700        1.18310        0.19140
O          1.66450       -0.93200        0.98610
H          1.46780       -0.45550       -1.07560
F          0.83630        2.02280       -0.83570
C         -0.53690        2.17390        4.38370
C         -0.49000        1.64770        3.15220
C          0.06790        2.39120        1.97570
O          1.08370        1.61420        1.47310
C         -1.02550        1.37660        5.56520
H         -0.19390        3.19120        4.55190
H         -0.83550        0.63200        2.98240
H          0.46200        3.38910        2.26960
H         -0.73920        2.53630        1.22290
C          1.75990       -2.29370        0.82770
H          1.91250       -2.76350        1.82190
H          2.61300       -2.54810        0.16610
H          0.81390       -2.68840        0.39540
C         -2.45820        0.87760        5.39180
H         -0.97160        2.01460        6.47260
H         -0.35390        0.50280        5.71190
H         -3.15270        1.73150        5.25000
H         -2.76040        0.31200        6.29860
H         -2.53510        0.19270        4.52130
