24
TSA8_9_CBr3_CH2F_OMe
C          1.47010       -0.31830        0.06360
C          2.11600       -1.09900        0.97560
C          2.00550        0.19850       -1.26070
H          0.45410       -0.02220        0.28680
C          3.54030       -1.56830        0.82120
C         -0.58530       -3.36000        4.05620
C         -0.02990       -3.11610        2.85460
C          0.14170       -1.72290        2.32420
O          1.49400       -1.51430        2.11610
O         -0.72890       -4.61130        4.57330
H         -0.93660       -2.52680        4.65740
H          0.32390       -3.93030        2.23130
H         -0.23730       -0.96680        3.04570
H         -0.44610       -1.65070        1.38680
Br         0.61470        1.21660       -2.15100
Br         3.50540        1.41020       -1.05990
Br         2.47700       -1.25430       -2.45830
F          4.42770       -0.51310        0.86070
H          3.67290       -2.15330       -0.10900
H          3.79910       -2.24120        1.66650
C         -0.27650       -5.78080        3.99580
H         -0.53270       -6.63490        4.65510
H          0.82790       -5.74480        3.87750
H         -0.76010       -5.93720        3.00790
