22
TSA8_9_CBr3_OH_OMe
C          1.48920       -0.35720        0.05380
C          2.09110       -1.24330        0.88270
C          1.97440        0.02070       -1.32850
H          0.59350        0.13820        0.41340
O          3.23480       -1.88860        0.55220
C         -0.34590       -3.23220        4.30230
C          0.16970       -3.08900        3.06790
C          0.23660       -1.76000        2.37620
O          1.57130       -1.51380        2.10740
O         -0.35940       -4.41890        4.97030
H         -0.76420       -2.36770        4.80740
H          0.58560       -3.94030        2.53930
H         -0.17480       -0.94720        3.01330
H         -0.36490       -1.81800        1.44220
Br         0.80940        1.37600       -2.07780
Br         3.76470        0.77500       -1.28030
Br         1.92220       -1.51310       -2.51730
H          3.68130       -1.81270       -0.29810
C          0.25320       -5.58540        4.55520
H          0.09050       -6.37510        5.31690
H          1.34770       -5.42030        4.44970
H         -0.17310       -5.92940        3.58940
