20
TSA8_9_Br_CF3_CF3
C          2.04060        0.77470       -2.14750
C          0.82950       -0.01450       -2.58560
Br         1.78580        1.24040       -0.27160
H          2.94460        0.12910       -2.20770
C          0.96580       -1.45060       -3.01380
C          2.26860        2.05140       -3.00370
C          3.47790        2.79790       -2.47900
C          3.39080        4.04210       -1.99790
O         -0.27270        0.51480       -2.57780
C          2.49290        1.74390       -4.50080
H          1.36470        2.69690       -2.92030
H          4.44800        2.30850       -2.49280
H          2.44150        4.56770       -1.96480
H          4.27980        4.54410       -1.63030
F         -0.26710       -1.97140       -3.36670
F          1.81650       -1.53860       -4.09970
F          1.48370       -2.19520       -1.97030
F          3.58690        0.91180       -4.66910
F          1.37890        1.13970       -5.05410
F          2.72070        2.92350       -5.18900
