20
TSA8_9_Br_CF3_CF3
C          1.76480        0.04570       -0.12400
C          1.50460        0.09700       -1.45390
Br         2.10830        1.55460        1.01450
H          1.74160       -0.90440        0.39780
C          1.16290       -1.15650       -2.22320
C          2.25520        2.77810       -4.52370
C          3.01190        2.51100       -3.44680
C          2.38980        2.30500       -2.09660
O          1.50600        1.24680       -2.18100
C          2.82560        2.95780       -5.90350
H          1.17720        2.85860       -4.41070
H          4.09030        2.42210       -3.53490
H          1.84640        3.22330       -1.78840
H          3.21300        2.09960       -1.38250
F         -0.09320       -1.01470       -2.78290
F          2.08650       -1.32340       -3.23840
F          1.16910       -2.29040       -1.42870
F          4.20310        2.81820       -5.91840
F          2.27360        2.00790       -6.74270
F          2.49760        4.21610       -6.37000
