20
TSA8_9_Br_CF3_CF3
C          2.74950        0.51520       -2.77950
C          1.51530        0.45030       -1.81730
Br         4.36870        0.74850       -1.71500
H          2.88470       -0.45490       -3.30440
C          0.55600       -0.68720       -2.18620
C          2.52580        1.65490       -3.79630
C          2.32450        2.99280       -3.05540
C          1.63450        2.77740       -1.69810
O          0.76720        1.66750       -1.76100
C          3.59820        1.75980       -4.89550
H          1.56690        1.42150       -4.30960
H          3.26870        3.54760       -2.86420
H          1.07180        3.69280       -1.42170
H          2.38010        2.62560       -0.88450
F         -0.48960       -0.71720       -1.28190
F          0.04550       -0.49930       -3.45810
F          1.21700       -1.90120       -2.13310
F          4.83490        2.07810       -4.36420
F          3.69630        0.55770       -5.57310
F          3.23980        2.74490       -5.79890
