15
TSA8_9_H_I_CN
C          1.66400       -0.08630        0.09210
C          1.67050       -1.30360        0.63490
H          1.69560       -0.08770       -0.99500
H          1.37170        0.88740        0.58270
I          3.73900       -1.60110        0.88550
C         -1.50940       -3.88550        0.98790
C         -0.97000       -2.67020        0.81090
C         -0.37110       -1.88650        1.97800
O          1.01600       -1.59350        1.80130
C         -1.96570       -4.62000       -0.21800
H         -1.66830       -4.35520        1.90990
H         -0.93500       -2.26960       -0.19840
H         -0.61000       -2.42920        2.94680
H         -0.92340       -0.95970        2.19780
N         -2.31940       -5.18130       -1.18870
