17
TSA8_9_F_NH2_CN
C          2.03150        2.06470       -0.94720
C          1.16960        0.85570       -1.42580
F          1.81960        2.25670        0.40960
H          3.11480        1.85470       -1.08940
N          1.98060       -0.07180       -2.20920
C          1.58040        3.30730       -1.72680
C          0.09970        3.55110       -1.41830
C         -0.69810        2.23810       -1.50630
O          0.03130        1.24460       -2.19580
C          2.36110        4.52100       -1.45600
H          1.69280        3.09080       -2.81170
H         -0.04510        3.96490       -0.39160
H         -1.64050        2.45380       -2.05050
H         -0.98910        1.86070       -0.49920
H          2.34320        0.41530       -3.06080
H          1.37040       -0.86170       -2.52130
N          2.95510        5.49630       -1.26770
