16
TSA8_9_NO2_F_I
C          1.53590        0.22140       -1.84630
C          1.12930       -0.86990       -0.88350
N          1.25920        1.52540       -1.25290
H          2.63540        0.14440       -1.99890
F          2.06590       -1.72460       -0.39680
C          0.88360       -0.00560       -3.23960
C         -0.62890        0.00670       -3.21610
C         -1.34380       -1.07370       -3.54740
O         -0.03180       -0.98450       -0.52240
I          1.58920        1.41340       -4.68850
H          1.23920       -0.99460       -3.60670
H         -1.16010        0.90600       -2.92540
H         -0.86050       -1.99990       -3.84360
H         -2.42770       -1.03730       -3.51950
O          1.77530        1.81850       -0.21670
O          0.48200        2.40610       -1.84640
