16
TSA8_9_NO2_F_I
C          1.90380       -0.03480       -0.13130
C          1.21310       -0.72530       -1.05440
N          2.03770        1.38500       -0.14270
H          2.37960       -0.59390        0.67010
F          1.14390       -2.08050       -0.93940
C         -0.44010        0.10590       -5.31920
C         -0.70790        0.21100       -4.01350
C         -0.17390       -0.77170       -3.01280
O          0.59120       -0.10100       -2.08420
I         -1.21530        1.51270       -6.68810
H          0.17720       -0.70120       -5.70200
H         -1.32990        1.02790       -3.66000
H          0.44170       -1.55360       -3.51120
H         -1.03210       -1.26220       -2.50450
O          2.66470        1.91900        0.72010
O          1.47630        2.12140       -1.07820
