16
TSA8_9_NO2_F_I
C          1.68920        0.16150       -2.04900
C          1.17400       -1.07780       -1.29430
N          1.45130        1.34930       -1.23540
H          2.78750        0.06930       -2.19860
F          1.61040       -2.26330       -1.86900
C          1.00520        0.18680       -3.43830
C         -0.51670        0.09300       -3.29160
C         -0.85760       -1.13180       -2.43320
O         -0.23930       -1.05650       -1.15770
I          1.59180        1.84730       -4.66570
H          1.33530       -0.71540       -3.99930
H         -0.93280        1.00300       -2.81470
H         -0.57920       -2.07390       -2.95650
H         -1.95800       -1.16590       -2.29350
O          1.95960        1.42930       -0.15780
O          0.72220        2.35560       -1.66830
