20
TSA8_9_H_Me_CBr3
C          2.59500        1.90110        1.74100
C          1.35650        2.65710        1.31650
H          2.47780        0.89800        1.27350
H          3.49950        2.36760        1.29730
C          1.12090        2.91300       -0.14110
C          2.80460        1.71640        3.27150
C          3.79220        0.57770        3.45530
C          3.45990       -0.55800        4.07830
O          0.51680        3.01430        2.12710
C          3.34200        2.98030        4.02610
H          1.83270        1.41260        3.72130
H          4.80110        0.67760        3.06570
H          2.46380       -0.70860        4.48260
H          4.19310       -1.35050        4.18730
H          1.94770        3.53080       -0.54910
H          0.16160        3.45190       -0.29600
H          1.08050        1.94810       -0.68870
Br         3.56210        2.57500        5.91640
Br         5.07470        3.56820        3.35520
Br         2.17460        4.52880        3.97350
