20
TSA8_9_H_Me_CBr3
C          3.02590        1.96300        1.67630
C          1.75340        1.31190        1.04920
H          3.86830        1.24050        1.61940
H          3.32720        2.85610        1.08910
C          0.82000        2.37630        0.47280
C          2.74830        2.27330        3.15840
C          2.40120        0.95010        3.88640
C          1.82440       -0.10030        2.92150
O          0.99480        0.51130        1.96010
C          3.88420        3.05530        3.86590
H          1.84040        2.91400        3.18940
H          3.27040        0.47420        4.38810
H          1.25030       -0.85380        3.49900
H          2.64060       -0.65930        2.40720
H          0.44640        3.05240        1.27030
H         -0.04790        1.88300       -0.01270
H          1.35200        2.97510       -0.29580
Br         3.41110        3.41270        5.71680
Br         5.57910        2.09830        3.84660
Br         4.16440        4.78160        3.01890
