17
TSA8_9_NH2_OH_F
C          2.36070        1.47540       -0.24690
C          1.39310        0.87710       -1.25190
N          2.30690        0.74040        1.01930
H          3.38410        1.35310       -0.66650
O          1.84320        0.37970       -2.42470
C          2.20430        2.99920        0.00060
C          0.92940        3.43430        0.68770
C         -0.26760        3.43500        0.09510
O          0.20510        0.78470       -0.99130
F          3.26130        3.39190        0.80520
H          2.30440        3.55210       -0.95900
H          0.99390        3.80730        1.70620
H         -0.39390        3.12250       -0.93390
H         -1.13920        3.77980        0.64240
H          2.52690       -0.26790        0.84720
H          1.34830        0.80270        1.43410
H          2.77840        0.40790       -2.67100
