17
TSA8_9_NH2_OH_F
C          1.99450        0.18220       -0.19920
C          1.59070        0.88210       -1.29800
N          1.73300        0.48540        1.16410
H          2.57400       -0.72000       -0.37430
O          1.93120        0.38940       -2.51270
C          1.79220        4.96290        0.17690
C          1.65110        3.63520        0.25510
C          0.46060        2.92480       -0.34300
O          0.85820        2.03800       -1.32300
F          2.87880        5.56400        0.72780
H          1.04900        5.57770       -0.32130
H          2.42090        3.06450        0.76260
H         -0.20880        3.66980       -0.82430
H         -0.16870        2.42140        0.41440
H          2.10780       -0.14720        1.88550
H          1.18040        1.27580        1.49510
H          2.44040       -0.42560       -2.63530
