15
TSA8_9_I_OH_I
C          3.06250       -1.39020        0.15700
C          1.57400       -1.68030        0.51030
I          3.19340       -0.00600       -1.49260
H          3.55120       -0.86030        1.00350
O          1.43500       -1.74510        1.89810
C          3.75990       -2.72590       -0.11920
C          3.06680       -3.46540       -1.27360
C          1.56550       -3.12950       -1.33220
O          1.05330       -2.89290       -0.04020
I          5.87090       -2.55720       -0.45460
H          3.63870       -3.34570        0.79630
H          3.49930       -3.22430       -2.26870
H          1.02330       -3.96970       -1.81300
H          1.37130       -2.24260       -1.97460
H          0.82470       -0.99770        2.12270
