21
TSA8_9_I_OMe_CF3
C          2.26770        2.14880       -0.56330
C          1.08450        2.32670       -1.49870
I          1.78710        0.51730        0.75880
H          3.17910        1.84330       -1.11620
O          1.17400        2.18420       -2.84810
C          2.58380        3.44880        0.22580
C          3.70880        3.19330        1.20720
C          3.54660        3.34350        2.52600
O         -0.00180        2.61490       -1.02050
C          2.99820        4.61560       -0.69920
H          1.66860        3.75630        0.78090
H          4.67900        2.88020        0.83120
H          2.59450        3.65590        2.94400
H          4.37560        3.15280        3.19950
C          2.32150        1.89480       -3.55510
H          2.07650        1.84640       -4.63580
H          2.73050        0.91110       -3.24200
H          3.07750        2.69360       -3.40170
F          1.97930        4.94090       -1.57600
F          4.12700        4.28190       -1.42870
F          3.27810        5.73730        0.06290
