26
TSA8_9_OMe_Et_NH2
C          2.46550       -0.63110       -0.76270
C          1.27830       -1.44480       -0.29180
O          2.02780        0.68350       -1.07780
H          3.20810       -0.65550        0.07520
C          1.32520       -2.10490        1.06880
C          3.24170       -1.22330       -1.97350
C          2.49290       -1.19380       -3.29690
C          1.46080       -1.99010       -3.58640
O          0.27590       -1.52860       -0.98440
N          4.49580       -0.47680       -2.11880
H          3.52050       -2.27650       -1.74360
H          2.83840       -0.51920       -4.07660
H          1.09200       -2.72540       -2.88290
H          0.98870       -1.92520       -4.56140
C          2.48310        1.61360       -0.12200
H          3.59080        1.70460       -0.15610
H          2.12360        1.35320        0.89820
H          2.06180        2.60880       -0.37460
C          0.05710       -2.88770        1.40840
H          1.47930       -1.32140        1.84180
H          2.18780       -2.80470        1.09510
H         -0.82540       -2.21350        1.41500
H          0.16180       -3.34410        2.41600
H         -0.10380       -3.70010        0.66780
H          4.30610        0.51550       -2.39330
H          5.08770       -0.92150       -2.85850
