26
TSA8_9_OMe_Et_NH2
C          2.59710       -0.57800       -0.74570
C          1.23990       -1.31380       -0.45350
O          2.36350        0.63810       -1.43670
H          3.16770       -0.38360        0.19530
C          1.34520       -2.15400        0.83030
C          3.44180       -1.50170       -1.63650
C          2.70080       -1.78950       -2.95970
C          1.17680       -1.68460       -2.77900
O          0.79110       -2.16860       -1.51300
N          4.77580       -0.95240       -1.87920
H          3.55780       -2.46520       -1.09280
H          2.97730       -1.08840       -3.77690
H          0.67380       -2.26510       -3.57940
H          0.82290       -0.63530       -2.89930
C          1.94640        1.66650       -0.55820
H          2.73810        2.44280       -0.50730
H          1.71260        1.33170        0.47910
H          1.01920        2.12190       -0.96240
C          0.00970       -2.80000        1.19160
H          1.65000       -1.49660        1.67290
H          2.10870       -2.95080        0.70680
H         -0.76730       -2.02060        1.34110
H          0.12120       -3.37960        2.13220
H         -0.31950       -3.49610        0.39110
H          4.70710       -0.05640       -2.41410
H          5.33410       -1.63590       -2.44090
