23
TSA8_9_CH2F_CF3_CF3
C          1.77510        0.06220       -0.10360
C          1.43760        1.06410       -0.95250
C          1.87590        0.19310        1.39130
H          1.96330       -0.93330       -0.49260
C          1.26180        0.79650       -2.43190
C          2.73820        4.29190       -2.16660
C          3.14700        3.60830       -1.08780
C          2.18320        3.18650       -0.01460
O          1.20830        2.33340       -0.51350
C          3.70710        4.71900       -3.22900
H          1.68690        4.54490       -2.27850
H          4.19860        3.36030       -0.97010
H          1.69100        4.09430        0.39350
H          2.75630        2.71170        0.80470
F          3.16970       -0.07940        1.79280
H          1.18980       -0.54440        1.85680
H          1.57160        1.18700        1.76880
F         -0.02690        1.13540       -2.79940
F          2.14960        1.56780       -3.15440
F          1.47500       -0.53250       -2.75830
F          4.31900        3.60900       -3.78260
F          3.03510        5.40610       -4.22260
F          4.67020        5.54690       -2.68070
