23
TSA8_9_CCl3_CBr3_Me
C          1.59890       -0.05360       -0.04110
C          1.47930       -1.40790       -0.15710
C          1.80330        0.94860       -1.16460
H          1.48900        0.39210        0.93660
C          1.18740       -2.29630        1.04790
C          2.89150       -4.08140       -3.71520
C          2.92110       -3.58430       -2.47100
C          2.63880       -2.13830       -2.18270
O          1.53430       -2.04210       -1.36070
C          3.19290       -5.52580       -3.96870
H          2.65030       -3.44110       -4.55890
H          3.16180       -4.23890       -1.64000
H          2.43300       -1.58230       -3.12390
H          3.54090       -1.72350       -1.69140
Cl         0.58040        0.73900       -2.44560
Cl         1.61060        2.59770       -0.51270
Cl         3.43990        0.88850       -1.86430
Br         1.02940       -1.41420        2.78110
Br        -0.48190       -3.23100        0.73830
Br         2.59470       -3.61440        1.22670
H          2.47280       -6.16770       -3.41850
H          4.22520       -5.75980       -3.63320
H          3.11150       -5.74240       -5.05480
