23
TSA8_9_CCl3_CBr3_Me
C          2.12970       -1.74250       -1.71380
C          1.99030       -2.74020       -0.48350
C          0.87180       -0.96320       -2.24930
H          2.80820       -0.93490       -1.36350
C          1.23520       -2.31260        0.81060
C          2.92190       -2.49810       -2.85260
C          4.08600       -3.34100       -2.29160
C          4.37180       -2.97040       -0.84960
O          3.24770       -3.28210       -0.04620
C          2.07710       -3.40390       -3.76710
H          3.38060       -1.72290       -3.50260
H          3.82330       -4.42410       -2.26290
H          4.68190       -1.90980       -0.72990
H          5.22500       -3.58890       -0.50340
Cl        -0.51960       -2.01860       -2.63470
Cl         0.32830        0.30520       -1.11930
Cl         1.27490       -0.03680       -3.72740
Br         2.00740       -0.71570        1.60160
Br        -0.69010       -2.14990        0.63750
Br         1.41130       -3.72140        2.14410
H          1.56140       -4.18960       -3.17460
H          2.72920       -3.89470       -4.52170
H          1.33240       -2.82140       -4.34120
