20
TSA8_9_CH2F_CCl3_F
C          2.58750       -1.69570        0.23290
C          1.32620       -1.83810        1.06950
C          2.33340       -0.71810       -0.92510
H          3.38190       -1.23270        0.85920
C          1.28750       -1.37450        2.51130
C          3.14120       -3.08180       -0.20870
C          2.21140       -3.92850       -1.04990
C          1.88100       -3.63250       -2.31060
O          0.32440       -2.32200        0.56070
F          3.44550       -3.80100        0.93480
H          4.09350       -2.94550       -0.76560
H          1.81680       -4.84480       -0.61990
H          1.22050       -4.29220       -2.86340
H          2.27200       -2.75590       -2.81250
F          3.48280       -0.55150       -1.67730
H          2.03860        0.27160       -0.51560
H          1.50570       -1.05830       -1.57770
Cl         2.49460       -2.25820        3.47910
Cl         1.64210        0.36990        2.59950
Cl        -0.31620       -1.64760        3.25190
