20
TSA8_9_CH2F_CCl3_F
C          2.75850       -1.35400       -0.04830
C          1.34320       -1.60150        0.54320
C          2.62220       -0.48210       -1.31330
H          3.37780       -0.72520        0.62680
C          1.21950       -1.76780        2.07600
C          3.50100       -2.68620       -0.31930
C          2.54670       -3.86260       -0.57480
C          1.18820       -3.38980       -1.08330
O          0.51290       -2.51610       -0.18090
F          4.29850       -3.01540        0.76290
H          4.18540       -2.55640       -1.18420
H          2.34770       -4.40940        0.36780
H          0.55840       -4.29440       -1.21360
H          1.27180       -2.93540       -2.08740
F          3.87430       -0.16570       -1.81330
H          2.11340        0.46950       -1.04740
H          2.03540       -0.95430       -2.11880
Cl         2.01850       -3.22190        2.72220
Cl         1.89870       -0.34240        2.90510
Cl        -0.50490       -1.85250        2.51980
