19
TSA8_9_NO2_Cl_CF3
C          1.72190        0.02220       -0.01400
C          1.54050        1.35880        0.07700
N          1.50110       -0.92520        1.02610
H          2.03820       -0.36880       -0.97840
Cl         1.75100        2.30930       -1.38750
C          3.97020        3.48740        2.68270
C          3.38830        2.40400        2.14590
C          1.94380        2.05850        2.39530
O          1.22480        2.05220        1.20730
C          5.41970        3.82740        2.45820
H          3.38830        4.15450        3.31240
H          3.96050        1.72900        1.51680
H          1.46790        2.79300        3.08020
H          1.92820        1.08650        2.90820
O          1.80100       -2.06470        0.83920
O          0.73660       -0.63560        2.05590
F          6.05340        2.89590        1.65180
F          5.50710        5.06860        1.85770
F          6.06560        3.86950        3.67870
