19
TSA8_9_NO2_Cl_CF3
C          2.79820        1.55240        0.62120
C          1.27030        1.90170        0.57490
N          3.00760        0.14570        0.95160
H          3.22570        1.71040       -0.39420
Cl         0.96380        3.08660       -0.72520
C          3.45560        2.52730        1.63350
C          2.82550        2.34750        3.02700
C          1.35360        1.91760        2.92590
O          0.74320        2.46640        1.77900
C          4.99560        2.52760        1.69850
H          3.17170        3.54400        1.27890
H          3.34580        1.59360        3.65720
H          0.81810        2.24970        3.83890
H          1.25280        0.81250        2.91150
O          4.10660       -0.31780        0.91390
O          1.98500       -0.66780        1.11550
F          5.49110        1.35010        2.22560
F          5.52030        2.71580        0.43250
F          5.41750        3.56900        2.50640
