21
TSA8_9_CN_CH2F_CF3
C          2.90990        1.49230       -0.31250
C          1.50710        1.20640       -0.95830
C          2.76010        1.10620        1.10720
H          3.68410        0.82760       -0.76140
C          1.60760        0.45540       -2.29080
C          3.19940        3.00950       -0.56410
C          2.13800        3.81470        0.18760
C          0.74770        3.21120       -0.00810
O          0.71090        2.38090       -1.15300
C          4.56790        3.69140       -0.34610
H          3.04870        3.13080       -1.65920
H          2.35630        3.82790        1.28530
H          0.05890        4.06940       -0.13480
H          0.40670        2.64610        0.88900
N          2.63100        0.75810        2.20440
F          2.32840        1.18460       -3.21950
H          0.58720        0.27110       -2.69150
H          2.09750       -0.52860       -2.13680
F          5.58300        3.00350       -0.98160
F          4.48900        4.95470       -0.92360
F          4.88120        3.85320        0.99070
