17
TSA8_9_CH2F_H_H
C          1.82200        0.06300        0.00130
C          1.15300        1.16560        0.36480
C          2.02370       -1.11870        0.90770
H          2.23980        0.01410       -0.99980
H          1.04820        1.97500       -0.35410
C         -0.23740        3.05670        4.37160
C         -0.57880        2.20780        3.39770
C         -0.11270        2.39020        1.98320
O          0.60910        1.28250        1.59930
H         -0.59380        2.89220        5.38330
H          0.39440        3.91710        4.17310
H         -1.21280        1.35810        3.63420
H          0.52060        3.30050        1.88500
H         -1.00300        2.50250        1.32720
F          3.37740       -1.33480        1.08180
H          1.57140       -2.01620        0.43690
H          1.55490       -0.97370        1.90330
