18
TSA8_9_I_OH_CCl3
C          1.62180       -0.05630        0.06930
C          1.90490       -1.08650       -0.74600
I          1.10620        1.85260       -0.69210
H          1.70060       -0.16840        1.14530
O          2.29050       -2.27690       -0.22810
C          2.29130       -3.79520       -3.05340
C          3.14770       -2.77650       -2.89520
C          2.74180       -1.33330       -3.02040
O          1.80500       -0.92390       -2.08870
C          2.75600       -5.22530       -2.93410
H          1.24820       -3.58650       -3.27890
H          4.19220       -2.98700       -2.67840
H          2.33900       -1.14780       -4.03820
H          3.65050       -0.70810       -2.89360
H          2.35110       -2.43830        0.72450
Cl         1.39480       -6.34060       -3.20910
Cl         4.01690       -5.57220       -4.14890
Cl         3.41580       -5.53360       -1.30520
