17
TSA8_9_CHF2_I_F
C          1.64970       -1.54870        0.89110
C          0.68570       -0.41370        1.28490
C          1.50780       -1.86560       -0.61460
H          2.69730       -1.20270        1.03020
I          1.22310        0.64890        3.08300
C          1.39990       -2.74980        1.82900
C         -0.08180       -3.12370        1.85410
C         -0.90400       -1.87160        2.18810
O         -0.67440       -0.82490        1.25590
F          2.17170       -3.84190        1.47400
H          1.68380       -2.45410        2.86260
H         -0.40540       -3.54550        0.88220
H         -0.70270       -1.53410        3.22730
H         -1.97950       -2.14450        2.15580
F          2.39920       -2.85570       -0.98680
F          0.22710       -2.25110       -0.96400
H          1.75320       -0.95100       -1.19600
