22
TSA8_9_OMe_OH_CBr3
C          2.45230       -0.19880        1.33740
C          1.32130        0.75020        0.98650
O          2.12850       -1.50280        0.87830
H          3.37750        0.19070        0.85540
O          1.54490        1.82790        0.20310
C          2.71190       -0.22000        2.87400
C          1.54000       -0.86040        3.59840
C          0.79060       -0.18990        4.47850
O          0.19070        0.54040        1.39760
C          4.04100       -0.92900        3.27240
H          2.82450        0.83890        3.20230
H          1.29880       -1.90080        3.39930
H          0.99100        0.85070        4.71130
H         -0.03690       -0.68860        4.97320
C          2.52400       -1.67810       -0.46480
H          3.62170       -1.83610       -0.52600
H          2.20050       -0.83200       -1.11260
H          2.02230       -2.58500       -0.85900
H          2.42180        2.03050       -0.15230
Br         4.30660       -0.82320        5.19670
Br         4.10940       -2.81100        2.78110
Br         5.58020       -0.04540        2.47650
