22
TSA8_9_OMe_OH_CBr3
C          1.58530        0.17240        0.05860
C          1.47880        1.25720        0.86080
O          1.41670       -1.09090        0.51520
H          1.79680        0.32810       -0.99680
O          1.62890        2.48700        0.31680
C          3.26730       -0.35060        4.43240
C          2.65340       -0.36920        3.23750
C          1.23880        0.12360        3.06340
O          1.20920        1.20400        2.19970
C          4.68570       -0.82710        4.60640
H          2.73270        0.02270        5.30160
H          3.18890       -0.74050        2.36910
H          0.83390        0.46280        4.04050
H          0.56880       -0.68660        2.71130
C          1.46360       -2.20880       -0.29100
H          2.27080       -2.88170        0.06430
H          1.65390       -1.95150       -1.35640
H          0.49410       -2.74410       -0.22450
H          1.81840        2.62970       -0.62160
Br         5.22030       -0.64610        6.46110
Br         4.84780       -2.69430        4.10660
Br         5.89540        0.23350        3.52190
