17
TSA8_9_CBr3_Br_H
C          1.63790       -0.65550       -1.58030
C          0.54220       -1.18930       -0.63340
C          1.67520        0.90540       -1.59510
H          2.63150       -0.95310       -1.17750
Br         0.87770       -2.99060        0.04350
C          1.48040       -1.35580       -2.95010
C          0.04680       -1.27510       -3.46630
C         -0.90800       -1.77360       -2.37380
O         -0.76500       -1.03480       -1.16900
H          2.19890       -0.97400       -3.70350
H          1.70660       -2.43590       -2.81200
H         -0.21140       -0.24650       -3.77400
H         -0.76730       -2.86140       -2.19550
H         -1.94830       -1.65470       -2.74130
Br         2.10110        1.54070        0.19220
Br         3.09870        1.54700       -2.75100
Br         0.03580        1.82080       -2.10700
