17
TSA8_9_I_NH2_OH
C          2.93900        1.54240        0.68170
C          1.46890        1.89580        0.75060
I          3.15190       -0.45200       -0.09460
H          3.41500        2.21560       -0.06470
N          0.98330        2.95140        0.05460
C          3.74170        1.73510        1.99540
C          3.34640        0.82690        3.14280
C          2.21470        0.96720        3.83900
O          0.70080        1.20830        1.40580
O          5.09450        1.49800        1.69580
H          3.62960        2.79800        2.31830
H          4.03860        0.04800        3.45110
H          1.50550        1.75550        3.61890
H          2.00300        0.29550        4.66480
H         -0.02040        3.18220        0.08920
H          1.60380        3.54110       -0.51910
H          5.63490        2.02000        2.34570
