17
TSA8_9_I_NH2_OH
C          1.84490        0.12370        0.06010
C          1.53590        1.35230        0.54010
I          2.11760       -1.70700        1.09710
H          1.93770       -0.00030       -1.01430
N          1.33640        2.40490       -0.38860
C          4.10050        2.61560        3.64110
C          3.55240        1.74860        2.77680
C          2.14060        1.24930        2.93930
O          1.37850        1.65770        1.86090
O          5.36130        3.07120        3.47110
H          3.53200        2.97190        4.49480
H          4.12900        1.40110        1.92430
H          1.68320        1.67710        3.85740
H          2.12870        0.15920        3.07290
H          1.10560        3.35130       -0.04960
H          1.43940        2.25700       -1.40430
H          5.91300        2.80580        2.72100
