21
TSA8_9_CHF2_CN_CH2F
C          2.53870       -1.31230       -1.31390
C          1.51150       -1.81410       -0.30670
C          2.56540        0.23940       -1.26370
H          3.51680       -1.69830       -0.95010
C          1.71280       -1.57790        1.10010
C          2.31230       -1.94540       -2.73380
C          1.16810       -1.29700       -3.48400
C          0.00750       -1.91740       -3.70850
O          0.57390       -2.52140       -0.65080
C          3.57830       -1.96510       -3.61270
H          2.09370       -3.02430       -2.55990
H          1.29120       -0.28200       -3.85140
H         -0.17270       -2.92400       -3.34750
H         -0.78160       -1.40090       -4.24600
F          3.54140        0.77350       -2.07720
F          1.33520        0.77370       -1.61060
H          2.78660        0.57310       -0.22840
N          1.88090       -1.39870        2.23270
F          3.98440       -0.70290       -3.99640
H          3.38030       -2.55350       -4.53440
H          4.40860       -2.46640       -3.06900
