22
TSA8_9_Et_Br_NO2
C          2.37340        1.62640        0.10930
C          0.99370        1.69780       -0.62860
C          2.28210        0.49690        1.18270
H          3.15160        1.30790       -0.61860
Br         1.26540        1.79620       -2.54890
C          2.67910        3.06580        0.61230
C          1.58520        3.50800        1.59750
C          0.19840        3.02150        1.13210
O          0.18010        2.81630       -0.26420
N          4.01180        3.30230        1.14230
H          2.58300        3.73520       -0.27330
H          1.75350        3.16830        2.64190
H         -0.56000        3.78000        1.41580
H         -0.11900        2.09060        1.64760
C          3.57820        0.16330        1.91440
H          1.97270       -0.43230        0.65500
H          1.51420        0.70960        1.94880
H          4.37750       -0.09580        1.18780
H          3.40900       -0.71540        2.57260
H          3.89340        1.00050        2.56720
O          4.88680        2.50730        0.97830
O          4.32370        4.50810        1.56760
