20
TSA8_9_Me_H_CF3
C          1.45810       -0.52790        2.51880
C          1.20820        0.79170        1.76740
C          1.27280       -1.70600        1.54660
H          2.51730       -0.54820        2.85680
H          1.52360        1.68300        2.35700
C          0.52390       -0.54530        3.76240
C         -0.92810       -0.28750        3.33130
C         -0.98310        0.99800        2.49510
O         -0.14450        0.90230        1.35570
C          0.63330       -1.80660        4.63970
H          0.83240        0.31180        4.40410
H         -1.31930       -1.13690        2.73190
H         -0.71510        1.88630        3.11130
H         -2.02840        1.15200        2.15580
H          1.52620       -2.66730        2.03550
H          1.96710       -1.58900        0.68700
H          0.23870       -1.75770        1.14870
F          0.17560       -2.93040        3.97560
F          1.94900       -2.00580        5.01810
F         -0.13100       -1.63850        5.78110
