22
TSA8_9_CHF2_OMe_OH
C          2.30620       -1.00110       -1.82670
C          0.84320       -0.52960       -2.03110
C          2.99420       -0.07680       -0.80510
H          2.32900       -2.03170       -1.40870
O         -0.11300       -1.22000       -1.25140
C          2.99100       -1.05510       -3.21100
C          2.74750        0.22150       -4.03100
C          1.28290        0.69420       -3.89540
O          0.45840       -0.33850       -3.38560
O          4.36040       -1.34410       -3.10620
H          2.47240       -1.87900       -3.76010
H          3.43190        1.05950       -3.77970
H          0.91420        1.02560       -4.88770
H          1.22220        1.59370       -3.23700
F          4.28830       -0.49920       -0.55950
F          3.02040        1.23470       -1.24420
H          2.43550       -0.11250        0.15470
C         -0.48090       -2.42910       -1.88210
H         -0.86090       -3.12690       -1.10810
H          0.37240       -2.94790       -2.37530
H         -1.29500       -2.24390       -2.61460
H          4.60640       -1.88540       -3.90100
