18
TSA8_9_CHF2_OH_Cl
C          1.72430       -1.81740        1.09590
C          1.12550       -0.45300        1.49350
C          1.45810       -2.06080       -0.40710
H          2.82750       -1.78990        1.23360
O          1.57480       -0.01890        2.74670
C          1.12060       -2.88730        2.03960
C         -0.40700       -2.81910        2.00990
C         -0.84720       -1.38450        2.33330
O         -0.29430       -0.44710        1.42070
Cl         1.68530       -4.54620        1.69540
H          1.44490       -2.65850        3.07870
H         -0.79570       -3.11940        1.01430
H         -0.58760       -1.11740        3.38180
H         -1.95370       -1.33660        2.26280
F          2.02260       -1.03670       -1.14730
F          2.02270       -3.25130       -0.82520
H          0.37190       -2.08380       -0.63010
H          2.03360        0.83960        2.56360
