20
TSA8_9_Me_Cl_CCl3
C          1.90130       -0.02750        0.11220
C          1.09340        0.84070        0.73930
C          2.41410       -1.29130        0.74500
H          2.19550        0.17170       -0.91370
Cl         0.54760        2.26630       -0.15110
C         -0.35020        1.80260        5.07250
C         -0.40400        0.89300        4.08280
C         -0.32610        1.30070        2.63940
O          0.70630        0.62410        2.02420
C         -0.42780        1.41500        6.52640
H         -0.25730        2.85590        4.82080
H         -0.51280       -0.16190        4.32100
H         -0.17410        2.39880        2.55380
H         -1.28100        1.02990        2.14160
H          2.05680       -1.42210        1.78760
H          3.52300       -1.27660        0.74920
H          2.06830       -2.15990        0.14500
Cl        -0.38860        2.87810        7.54370
Cl        -1.94350        0.53820        6.86450
Cl         0.96000        0.38650        6.96570
