16
TSA8_9_NH2_F_I
C          1.72160       -0.00300        0.16710
C          1.36150       -0.21200        1.45840
N          2.24170       -0.95620       -0.74810
H          1.58330        1.00480       -0.21540
F          0.85620        0.86510        2.11500
C          4.34600       -3.03330        2.76890
C          3.54130       -2.42300        1.89280
C          2.04130       -2.58310        1.94380
O          1.43160       -1.36870        2.18390
I          6.43730       -2.76810        2.66190
H          3.94570       -3.67160        3.55050
H          3.98640       -1.79200        1.13210
H          1.76900       -3.26120        2.78090
H          1.62830       -3.06230        1.03670
H          2.46600       -0.64520       -1.70400
H          2.39100       -1.94390       -0.54060
