16
TSA8_9_NH2_F_I
C          2.88350       -0.59280        0.98670
C          1.38500       -0.67250        1.40750
N          3.03640       -0.90900       -0.43570
H          3.26340        0.44120        1.14390
F          0.99950        0.51520        2.00260
C          3.70610       -1.55070        1.86190
C          3.13460       -2.97490        1.80940
C          1.59640       -2.94690        1.75620
O          1.10480       -1.74270        2.30540
I          5.79990       -1.52930        1.40910
H          3.60190       -1.19730        2.91130
H          3.50140       -3.56990        0.94490
H          1.19680       -3.81730        2.31630
H          1.22530       -3.06560        0.71170
H          2.52330       -0.19550       -1.00250
H          2.64110       -1.84880       -0.66220
