23
TSA8_9_NH2_OMe_CHF2
C          1.78060        0.13170       -0.04350
C          1.69500       -0.21650        1.26570
N          1.79410       -0.73060       -1.17710
H          1.84750        1.19300       -0.26170
O          1.71650        0.81600        2.14260
C          4.10540       -3.70850        1.86560
C          3.38840       -2.83900        1.14120
C          1.89340       -2.73040        1.29960
O          1.58470       -1.48100        1.79220
C          5.59700       -3.77280        1.76560
H          3.60810       -4.38030        2.56220
H          3.88550       -2.16880        0.44620
H          1.54870       -3.47240        2.05720
H          1.32710       -2.98660        0.39260
H          1.78900       -1.74800       -1.13720
H          1.85290       -0.30840       -2.11160
C          2.06800        0.67370        3.46710
H          1.95150        1.64750        3.98340
H          3.13570        0.36780        3.53210
H          1.43290       -0.08470        3.97150
F          5.97480       -4.06510        0.47020
F          6.14400       -2.55700        2.14050
H          5.98110       -4.56520        2.44300
