23
TSA8_9_NH2_OMe_CHF2
C          3.16910       -1.04790        0.78010
C          1.71340       -0.79750        1.27940
N          3.19270       -1.14290       -0.68180
H          3.82600       -0.19950        1.07170
O          1.51610        0.47150        1.87430
C          3.69620       -2.33700        1.44970
C          2.72670       -3.51310        1.21820
C          1.25840       -3.04850        1.28350
O          1.14420       -1.86100        2.03930
C          5.14010       -2.69920        1.07310
H          3.68700       -2.14100        2.54570
H          2.88100       -4.04890        0.25620
H          0.64010       -3.85290        1.73210
H          0.84440       -2.88820        0.26010
H          2.55630       -1.89870       -1.02100
H          2.86790       -0.23640       -1.08950
C          2.02650        0.48690        3.19130
H          1.93360        1.51860        3.58750
H          3.10740        0.23220        3.22680
H          1.43470       -0.17270        3.86200
F          5.24980       -2.97700       -0.27790
F          5.99030       -1.65560        1.39330
H          5.45730       -3.59650        1.64620
