18
TSA8_9_Cl_OMe_Cl
C          2.55820       -0.59410        1.21550
C          1.96350        0.76030        0.90950
Cl         1.29410       -1.87240        1.24830
H          3.26440       -0.85070        0.39660
O          2.79230        1.83270        0.81110
C          3.34510       -0.54600        2.54270
C          2.45580       -0.17830        3.70680
C          2.65490        0.93340        4.42230
O          0.75350        0.88960        0.76970
Cl         4.12620       -2.11640        2.87590
H          4.16170        0.20240        2.43390
H          1.62690       -0.82930        3.96940
H          3.46860        1.61380        4.18950
H          1.99480        1.17180        5.24940
C          2.39280        3.14420        0.64370
H          2.81740        3.53880       -0.30170
H          2.77970        3.74990        1.49020
H          1.28710        3.25440        0.61330
