21
TSA8_9_Cl_OMe_CCl3
C          3.32970        0.90740       -1.38490
C          1.77900        0.78190       -1.28400
Cl         3.99540        0.91630        0.27650
H          3.74260        0.00240       -1.87670
O          1.23440       -0.30540       -2.01140
C          3.65780        2.19390       -2.18590
C          3.00750        3.41960       -1.50300
C          1.68020        3.04770       -0.81650
O          1.04780        1.98930       -1.50160
C          5.15070        2.42700       -2.54870
H          3.13220        2.07160       -3.15800
H          3.65210        3.90990       -0.74240
H          1.01960        3.93840       -0.78620
H          1.84860        2.76050        0.24750
C          1.30220       -0.07310       -3.40290
H          0.72590       -0.87060       -3.91440
H          2.34650       -0.14320       -3.77330
H          0.82850        0.88990       -3.69460
Cl         5.80380        1.02720       -3.44350
Cl         5.29450        3.84680       -3.62270
Cl         6.19820        2.72200       -1.13220
