15
TSA8_9_CN_H_Cl
C          1.62410       -0.00660        0.06940
C          1.66640       -0.56810        1.29760
C          1.74640       -0.69700       -1.19450
H          1.46580        1.06370       -0.01640
H          1.57100        0.07710        2.16320
C          2.26150       -5.03230        0.33590
C          2.07560       -3.73210        0.10520
C          1.13520       -2.90270        0.92270
O          1.83200       -1.89180        1.54430
Cl         3.39050       -5.93610       -0.65730
H          1.72890       -5.53950        1.13430
H          2.62300       -3.25230       -0.69670
H          0.63030       -3.50750        1.70730
H          0.33880       -2.48480        0.27730
N          1.83580       -1.20450       -2.23150
