15
TSA8_9_CN_H_Cl
C          2.60470       -1.54460        0.11870
C          1.49340       -1.00860        1.04900
C          2.25740       -1.17570       -1.26640
H          3.58060       -1.07450        0.36700
H          1.87210       -0.16860        1.67070
C          2.70430       -3.07520        0.28990
C          1.31280       -3.68510        0.11210
C          0.31480       -2.98550        1.06200
O          0.94490       -2.01400        1.88150
Cl         3.89410       -3.83920       -0.79940
H          3.03720       -3.29340        1.33000
H          0.97370       -3.55180       -0.94060
H         -0.10860       -3.77160        1.71900
H         -0.53950       -2.53870        0.50390
N          1.97290       -0.89410       -2.35100
