18
TSA8_9_I_CN_CH2F
C          2.96990        1.09120        1.39760
C          1.56750        1.43770        0.80210
I          3.01380       -1.04990        1.64050
H          3.78670        1.32450        0.67820
C          1.68090        2.11730       -0.49440
C          3.15040        1.89610        2.70750
C          2.00160        1.54360        3.65410
C          0.65170        1.63940        2.92720
O          0.78370        2.25620        1.66140
C          4.49900        1.80450        3.43320
H          3.05100        2.96820        2.42710
H          2.11350        0.51820        4.07630
H         -0.00420        2.26630        3.56450
H          0.15950        0.64610        2.82790
N          1.77240        2.65700       -1.51610
F          4.75890        0.53090        3.90250
H          4.46410        2.49910        4.30420
H          5.32720        2.14010        2.77490
