21
TSA8_9_CN_CCl3_CHF2
C          3.11500        1.02030        0.81210
C          1.65970        1.53980        0.57640
C          2.97640       -0.43750        0.98880
H          3.76140        1.19730       -0.07440
C          1.49010        2.42460       -0.67730
C          3.68010        1.75920        2.05630
C          2.81200        1.39930        3.25980
C          1.32290        1.51260        2.90860
O          1.11300        2.22840        1.70460
C          5.16850        1.61790        2.41040
H          3.55590        2.84510        1.85310
H          3.01630        0.35780        3.60810
H          0.86190        2.07820        3.74240
H          0.82330        0.51880        2.86870
N          2.84990       -1.58660        1.08570
Cl         2.08180        1.61420       -2.15460
Cl        -0.24440        2.75250       -0.91850
Cl         2.33820        3.98370       -0.49170
F          5.51220        0.32430        2.75300
F          5.96600        2.05670        1.36930
H          5.36630        2.27930        3.28730
