24
TSA8_9_OMe_CCl3_CCl3
C          2.55670       -0.53410       -1.15230
C          1.34240       -1.32400       -0.69300
O          2.24540        0.85200       -1.15670
H          3.39060       -0.78890       -0.45750
C          1.43050       -2.28240        0.48140
C          2.99350       -0.98400       -2.58310
C          1.99060       -0.50080       -3.61760
C          1.27780       -1.33850       -4.37400
O          0.28670       -1.19920       -1.29700
C          4.42920       -0.52220       -2.96940
H          3.03020       -2.09840       -2.58210
H          1.84760        0.56870       -3.75270
H          1.38600       -2.41360       -4.27800
H          0.57670       -0.94140       -5.10190
C          2.79110        1.51280       -0.03590
H          3.89730        1.55610       -0.10460
H          2.45180        1.05450        0.91400
H          2.41090        2.55600       -0.03620
Cl         2.66850       -3.52420        0.15750
Cl         1.86840       -1.42010        1.97690
Cl        -0.11990       -3.12090        0.77250
Cl         5.64100       -1.18230       -1.83310
Cl         4.86020       -1.15320       -4.58540
Cl         4.60910        1.25450       -3.01280
