17
TSA8_9_H_F_CHF2
C          2.00720        0.03320       -0.25560
C          1.35520        0.66150       -1.24440
H          2.57450        0.56870        0.49640
H          1.96940       -1.04950       -0.18790
F          0.65450       -0.08910       -2.13380
C          4.22890        3.83790       -1.62330
C          3.55470        2.82780       -1.05320
C          2.09370        2.94740       -0.69850
O          1.34360        2.01610       -1.39610
C          5.68000        3.70450       -1.97640
H          3.72750        4.77680       -1.84200
H          4.07220        1.89680       -0.84210
H          1.71820        3.95800       -0.96840
H          1.94580        2.82330        0.39480
F          6.42270        3.44760       -0.83820
F          5.85270        2.67360       -2.88220
H          6.03910        4.64960       -2.43490
