17
TSA8_9_Br_CF3_I
C          3.03650       -1.47770       -0.57170
C          1.54640       -1.69710       -0.43490
Br         3.42460        0.40610       -0.25260
H          3.53260       -2.05510        0.23850
C          1.01370       -2.63960        0.61040
C          3.65940       -1.98420       -1.90100
C          3.24000       -1.24080       -3.15090
C          2.03590       -1.37380       -3.71320
O          0.76400       -1.07840       -1.13930
I          5.80410       -1.87120       -1.74600
H          3.44560       -3.06700       -2.03330
H          3.96200       -0.60080       -3.64930
H          1.28480       -2.03570       -3.29810
H          1.80180       -0.83040       -4.62280
F         -0.36960       -2.67610        0.57450
F          1.50160       -3.91210        0.37790
F          1.41760       -2.21810        1.86390
