17
TSA8_9_Br_CF3_I
C          2.03570       -0.32320       -0.03850
C          1.52220       -1.53290       -0.38720
Br         2.73840        1.05250       -1.17960
H          2.05920       -0.03470        1.00650
C          0.98510       -2.46010        0.68050
C          4.18790       -2.84110       -3.45820
C          3.56850       -1.95330       -2.67480
C          2.09790       -1.65720       -2.81540
O          1.43170       -2.01880       -1.66200
I          6.24430       -3.24140       -3.20150
H          3.64970       -3.37910       -4.23260
H          4.13940       -1.44200       -1.90670
H          1.67050       -2.25390       -3.64970
H          1.91070       -0.59920       -3.07570
F         -0.34600       -2.72940        0.42120
F          1.69490       -3.64540        0.64000
F          1.08680       -1.93080        1.95680
