17
TSA8_9_Br_CF3_I
C          3.15290       -1.30870       -0.75200
C          1.60990       -1.57160       -0.74930
Br         3.48430        0.59290       -1.02920
H          3.60020       -1.54560        0.23720
C          1.18050       -2.48140        0.40600
C          3.80380       -2.16740       -1.84460
C          3.18090       -1.86480       -3.21660
C          1.69970       -1.47530       -3.07650
O          1.12390       -2.13400       -1.97080
I          5.94130       -2.01370       -1.91010
H          3.57450       -3.22720       -1.60100
H          3.69350       -1.04200       -3.76020
H          1.15950       -1.73850       -4.00900
H          1.58190       -0.37350       -2.96030
F         -0.19350       -2.63550        0.38250
F          1.77550       -3.72510        0.28980
F          1.53830       -1.91380        1.61560
