18
TSA8_9_Br_CN_CHF2
C          2.82530        0.27260        1.69960
C          1.49510        0.94550        1.21370
Br         2.69800       -1.58220        1.10640
H          3.71580        0.70320        1.18400
C          1.70590        2.01240        0.22090
C          2.90130        0.44910        3.25560
C          1.63660       -0.17340        3.84310
C          0.38880        0.37210        3.15120
O          0.70100        1.44890        2.28310
C          4.09570       -0.00030        4.12020
H          2.87580        1.54920        3.41820
H          1.66240       -1.28490        3.74860
H         -0.26480        0.74620        3.96040
H         -0.16870       -0.42300        2.60420
N          1.83540        2.85760       -0.56380
F          4.25920       -1.37250        4.15930
F          5.27500        0.61200        3.74030
H          3.87200        0.34080        5.16290
