20
TSA8_9_Et_Br_Br
C          1.70700       -0.07910        0.24130
C          1.28770       -0.80660        1.30940
C          2.00060       -0.49630       -1.17970
H          1.84170        0.98540        0.41560
Br         0.99980        0.16610        2.93290
C          3.26820       -4.62470        0.76930
C          2.72130       -3.46460        0.39000
C          1.24310       -3.19870        0.52680
O          1.01650       -2.14440        1.38680
Br         5.14950       -4.91050        0.58470
H          2.66140       -5.42130        1.18850
H          3.36600       -2.69830       -0.01900
H          0.74830       -4.09220        0.96410
H          0.73910       -3.03510       -0.44390
C          3.43110       -0.11860       -1.55580
H          1.30500        0.05270       -1.84910
H          1.86740       -1.56220       -1.38370
H          3.58600        0.97570       -1.44080
H          3.62240       -0.39180       -2.61520
H          4.16010       -0.65420       -0.91240
