25
TSA8_9_Et_CHF2_NO2
C          2.48350        0.98350        1.20260
C          1.28270        1.64400        0.55040
C          2.39320       -0.54410        0.92900
H          3.37330        1.38960        0.67230
C          1.49360        2.59620       -0.59590
C          2.55590        1.41730        2.71140
C          1.58340        0.62150        3.55760
C          0.44960        1.13800        4.03890
O          0.14970        1.40080        0.94050
N          3.88990        1.32450        3.30100
H          2.28490        2.49760        2.74290
H          1.81110       -0.41900        3.77230
H          0.16150        2.16020        3.82720
H         -0.21650        0.51300        4.62910
C          3.65280       -1.32870        1.26800
H          2.21180       -0.69450       -0.15760
H          1.52350       -0.98480        1.46480
H          4.50560       -0.93950        0.67170
H          3.49670       -2.39520        1.00020
H          3.88360       -1.27860        2.34960
F          0.28730        3.09080       -1.05830
F          2.28930        3.65160       -0.18810
H          2.00290        2.05820       -1.42360
O          4.83350        0.99420        2.65240
O          4.07420        1.74260        4.53440
