25
TSA8_9_Et_CHF2_NO2
C          2.51590        0.96110        1.26010
C          1.13710        1.56370        0.80890
C          2.38290       -0.58920        1.17250
H          3.30580        1.26090        0.53520
C          1.29400        2.56650       -0.33500
C          2.83990        1.57020        2.65710
C          1.72570        1.21410        3.65420
C          0.34430        1.29880        2.97710
O          0.39270        2.17040        1.86720
N          4.15890        1.29180        3.20090
H          2.79270        2.67560        2.53420
H          1.83810        0.21410        4.12570
H         -0.40170        1.65800        3.71550
H         -0.02020        0.29840        2.65420
C          3.66860       -1.38490        1.37360
H          2.03230       -0.83050        0.14460
H          1.62340       -0.97630        1.87970
H          4.44620       -1.04680        0.65530
H          3.46380       -2.45970        1.18160
H          4.03270       -1.30630        2.41560
F          0.04720        2.98590       -0.76000
F          2.02690        3.66350        0.08200
H          1.81290        2.08270       -1.18950
O          5.02790        0.86660        2.50260
O          4.48080        1.79100        4.37310
