19
TSA8_9_I_NH2_CH2F
C          2.24430        0.75330        1.64690
C          1.24990        1.89220        1.59920
I          1.25520       -0.99920        0.88050
H          3.10320        0.96010        0.96990
N          1.48530        2.99000        0.84440
C          2.77650        0.53370        3.08510
C          3.67940       -0.67740        3.13690
C          3.39800       -1.73250        3.91120
O          0.21910        1.81990        2.25230
C          3.56620        1.75940        3.57650
H          1.90710        0.38010        3.76360
H          4.58250       -0.69420        2.53340
H          2.50650       -1.75270        4.52900
H          4.06550       -2.58770        3.92920
H          0.79940        3.75970        0.81910
H          2.34630        3.07640        0.28650
F          4.00610        1.55590        4.87320
H          2.92790        2.66790        3.56750
H          4.44640        1.94290        2.92270
