19
TSA8_9_I_NH2_CH2F
C          2.95400        0.87200        1.60960
C          1.43740        0.53880        1.41260
I          4.15950       -0.72720        0.80210
H          3.23060        1.75430        0.99190
N          0.69490        1.72800        1.00080
C          3.19250        1.15970        3.10330
C          2.79360       -0.06390        3.95040
C          1.65820       -0.86050        3.28300
O          0.79580       -0.00200        2.57140
C          4.60250        1.66330        3.44230
H          2.49250        1.98260        3.36960
H          3.62940       -0.77350        4.13310
H          1.09330       -1.41180        4.06210
H          2.05440       -1.64010        2.59610
H          0.79070        2.47740        1.72420
H          1.07390        2.07840        0.09180
F          5.56390        0.70010        3.19730
H          4.64880        1.93960        4.51720
H          4.83440        2.56810        2.84120
