21
TSA8_9_CF3_H_OMe
C          2.58490        1.68970       -0.51260
C          1.38380        1.06940       -1.19530
C          2.76830        0.97630        0.86140
H          3.45560        1.44950       -1.16330
H          1.51780        0.52190       -2.12290
C          2.42300        3.25550       -0.50640
C          1.51970        3.78700        0.59090
C          0.34320        4.36580        0.33330
O          0.26230        1.18040       -0.72520
O          3.63270        4.00260       -0.61290
H          1.93920        3.48420       -1.48330
H          1.82960        3.69860        1.62650
H         -0.02040        4.48060       -0.68350
H         -0.26910        4.73090        1.15150
F          3.88460        1.39700        1.54680
F          1.66210        1.16750        1.67130
F          2.90890       -0.38350        0.64660
C          4.56040        3.78790        0.42040
H          5.28900        4.62380        0.39950
H          5.14530        2.86570        0.22500
H          4.10030        3.82090        1.42940
