21
TSA8_9_CF3_H_OMe
C          1.85220        0.15510       -0.14220
C          1.37420        0.88140       -1.18660
C          1.98540        0.40850        1.34440
H          2.20890       -0.83410       -0.41570
H          1.40100        0.36860       -2.14350
C          2.60620        4.95680       -0.46640
C          2.24060        3.70480       -0.12460
C          0.83730        3.20290       -0.36640
O          0.85210        2.14310       -1.24600
O          3.86200        5.45080       -0.28670
H          1.87340        5.61960       -0.91460
H          2.96010        3.02860        0.32190
H          0.23060        4.00780       -0.83390
H          0.29130        2.94760        0.55690
F          3.31910        0.29980        1.68840
F          1.52890        1.61980        1.78780
F          1.28030       -0.57610        2.01270
C          4.93950        4.76320        0.23320
H          5.82410        5.43300        0.24530
H          5.17270        3.88120       -0.40080
H          4.72390        4.44070        1.27370
