20
TSA8_9_CBr3_CF3_I
C          0.80650       -0.14910        1.38380
C          2.19080       -0.52800        1.96410
C          0.63300       -0.19010       -0.17850
H          0.75640        0.93180        1.64220
C          3.36220       -1.22350        1.29510
C         -0.39640       -0.85510        2.13600
C         -0.08380       -1.50130        3.47210
C          0.68550       -2.59270        3.56480
O          2.39350       -0.19080        3.12310
I         -2.00680        0.53630        2.51800
H         -0.81560       -1.67280        1.51470
H         -0.52130       -1.10630        4.38380
H          0.87500       -3.04520        4.53240
H          1.12220       -3.04470        2.67960
Br        -0.99890        0.67670       -0.77510
Br         2.03200        0.82500       -1.07650
Br         0.52820       -1.99850       -0.90780
F          4.44910       -0.36840        1.30050
F          3.68750       -2.34840        2.03080
F          3.14030       -1.62300        0.00190
