20
TSA8_9_CBr3_CF3_I
C          1.41970       -0.50330        0.18950
C          2.04120       -1.04520        1.28180
C          1.98480       -0.21180       -1.19370
H          0.37740       -0.23830        0.29700
C          3.49870       -1.46460        1.32090
C         -1.56740       -1.34440        4.55630
C         -0.31630       -1.41440        4.09420
C          0.00390       -1.05950        2.67380
O          1.35380       -1.24780        2.44560
I         -1.99710       -1.84960        6.56010
H         -2.38200       -1.03000        3.91050
H          0.48050       -1.73590        4.75920
H         -0.27120        0.00410        2.49770
H         -0.58100       -1.71850        1.99430
Br         0.58870        0.58380       -2.28480
Br         3.43240        1.07680       -1.17920
Br         2.52660       -1.82080       -2.12930
F          4.33250       -0.38700        1.11100
F          3.79840       -1.98260        2.56920
F          3.75910       -2.44810        0.39090
