21
TSA8_9_OH_Me_CBr3
C          1.74850        0.02610       -0.12170
C          1.44850        0.99850       -1.01510
O          1.84430        0.25800        1.20230
H          1.90810       -0.99100       -0.46980
C          1.33150        0.64510       -2.47140
C          3.57920        4.24770        0.84550
C          2.94580        3.06650        0.75830
C          1.46340        2.97390        0.49650
O          1.22480        2.30830       -0.69230
C          5.06230        4.33590        1.09540
H          3.01300        5.16790        0.73020
H          3.51560        2.15000        0.87330
H          1.03100        3.99320        0.40550
H          0.93570        2.48120        1.33820
H          2.05200       -0.45970        1.81560
H          2.06890        1.23860       -3.05140
H          0.30980        0.89100       -2.82770
H          1.52060       -0.43300       -2.66570
Br         5.61310        6.19310        1.15900
Br         5.52160        3.50760        2.78870
Br         6.04370        3.46100       -0.33150
