15
TSA8_9_OH_I_F
C          2.04330        0.02930        0.10190
C          1.31700       -0.30840        1.17660
O          2.21630       -0.81150       -0.94390
H          2.50950        1.00810        0.05990
I          1.12420        1.12020        2.74330
C         -0.27960       -4.36530        2.82340
C         -0.54770       -3.34500        2.00200
C         -0.06910       -1.95060        2.28310
O          0.72830       -1.53040        1.24130
F         -0.73430       -5.61100        2.52880
H          0.29880       -4.21750        3.72950
H         -1.12980       -3.52530        1.10280
H          0.50740       -1.91320        3.23430
H         -0.95430       -1.28530        2.37010
H          1.82740       -1.69710       -0.97940
