25
TSA8_9_OMe_Et_OH
C          1.57910       -0.15240       -0.00250
C          1.44610       -1.07830       -0.98220
O          1.60440        1.17590       -0.25850
H          1.64940       -0.48750        1.03020
C          1.39490       -2.54110       -0.61150
C          3.91390        0.61070       -4.04760
C          3.16380        0.59950       -2.93460
C          1.67330        0.38030       -2.98530
O          1.34530       -0.78460       -2.31540
O          5.25230        0.79030       -3.98880
H          3.45380        0.46880       -5.02050
H          3.64010        0.73920       -1.96900
H          1.34270        0.26510       -4.03960
H          1.12140        1.25090       -2.57840
C          1.67250        2.14290        0.72300
H          2.58350        2.75690        0.56990
H          1.70330        1.70450        1.74510
H          0.78060        2.79910        0.64830
C          0.07500       -3.16910       -1.04680
H          1.50970       -2.69310        0.48440
H          2.23390       -3.06390       -1.11850
H         -0.77290       -2.67380       -0.52930
H          0.07230       -4.24740       -0.78230
H         -0.05970       -3.07420       -2.14540
H          5.72470        0.90770       -3.15230
