17
TSA8_9_I_CN_NO2
C          1.71630        0.01270       -0.07570
C          1.50040        0.41300       -1.35740
I          1.89620        1.05020        1.76880
H          1.70610       -1.05460        0.12040
C          1.42400       -0.59900       -2.37420
C          3.11340        4.50280       -1.47610
C          2.70990        3.33590       -0.95120
C          1.29740        2.86930       -1.10330
O          1.29680        1.68600       -1.79840
N          4.43700        4.99350       -1.31280
H          2.40560        5.10720       -2.03630
H          3.40230        2.70290       -0.40670
H          0.69110        3.61910       -1.66520
H          0.78500        2.76100       -0.13070
N          1.35910       -1.39770       -3.20760
O          5.23760        4.40340       -0.65130
O          4.75610        6.16130       -1.82540
