21
TSA8_9_Cl_Et_CN
C          2.34850       -1.90660        0.28850
C          1.26220       -1.25180        1.20860
Cl         2.06040       -1.42070       -1.41390
H          3.36640       -1.53420        0.53390
C          1.85770       -0.51310        2.43620
C          2.24220       -3.42830        0.48240
C          0.84870       -3.89500        0.04620
C         -0.23380       -2.91090        0.51470
O          0.21850       -2.14700        1.60900
C          3.27220       -4.23450       -0.18480
H          2.35440       -3.62260        1.57130
H          0.75690       -3.98590       -1.06180
H         -1.12060       -3.50600        0.81410
H         -0.56390       -2.23100       -0.30320
C          1.24930       -0.93840        3.77600
H          1.67850        0.57320        2.29350
H          2.95590       -0.66120        2.50960
H          0.15130       -0.76970        3.77870
H          1.69740       -0.34320        4.59900
H          1.45720       -2.01400        3.96460
N          4.06480       -4.90950       -0.69020
