20
TSA8_9_OMe_F_NO2
C          1.50000        0.07910       -0.17980
C          1.06200        0.13150        1.07840
O          1.64470       -1.12190       -0.78770
H          1.70850        1.00060       -0.71750
F          0.87360        1.33870        1.67860
C         -1.22430       -3.26270        3.23930
C         -1.08530       -2.12240        2.54220
C         -0.00240       -1.13010        2.85230
O          0.78940       -1.02340        1.72990
N         -2.22820       -4.22250        2.92000
H         -0.54970       -3.47350        4.06300
H         -1.75190       -1.89940        1.71490
H          0.62240       -1.46450        3.70730
H         -0.47080       -0.15630        3.12020
C          1.93180       -1.24490       -2.12640
H          1.99350       -2.32240       -2.38440
H          2.90130       -0.75750       -2.36020
H          1.12050       -0.78240       -2.72910
O         -2.97060       -4.05840        1.99870
O         -2.31330       -5.32820        3.62760
