20
TSA8_9_NH2_CHF2_OH
C          1.85140       -0.17980       -0.15380
C          1.44640       -0.40820       -1.43710
N          2.31560        1.04510        0.39600
H          1.81000       -1.01210        0.54370
C          0.96100       -1.79130       -1.78940
C          4.20310        2.03000       -3.68430
C          3.46210        1.68280       -2.62080
C          1.95410        1.74250       -2.64850
O          1.41860        0.48290       -2.47640
O          5.55260        1.96300       -3.64880
H          3.72600        2.37100       -4.59790
H          3.96300        1.34180       -1.72070
H          1.61530        2.11210       -3.63970
H          1.53500        2.45860       -1.91780
H          2.38780        1.92640       -0.11210
H          2.58570        1.06410        1.38970
F         -0.34370       -1.71850       -2.24030
F          1.75690       -2.31010       -2.79380
H          0.99190       -2.49040       -0.92630
H          6.03750        1.66220       -2.86670
