21
TSA8_9_CH2F_CN_CBr3
C          2.35710        1.92840        0.47930
C          1.19100        1.58040       -0.50480
C          2.35210        0.82760        1.56940
H          3.32310        1.85200       -0.07100
C          1.65330        1.15760       -1.83500
C          2.11850        3.40340        0.96800
C          0.70260        3.50400        1.56390
C         -0.32950        2.81130        0.66560
O          0.20530        2.59670       -0.62310
C          3.13050        4.19150        1.84190
H          2.10500        3.99580        0.02540
H          0.61850        3.11600        2.60370
H         -1.21700        3.46730        0.59840
H         -0.67130        1.84610        1.11060
F          3.60910        0.65100        2.11630
H          2.06420       -0.15020        1.11670
H          1.61010        1.02210        2.37010
N          2.02220        0.83390       -2.88370
Br         2.47870        6.03050        2.01830
Br         3.36780        3.49950        3.63770
Br         4.86150        4.33430        0.98360
