18
TSA8_9_NH2_NH2_Cl
C          2.83990       -0.77890        0.98930
C          1.43630       -0.63460        1.55400
N          2.82170       -0.60380       -0.46570
H          3.45380        0.04270        1.42090
N          1.15560        0.34220        2.44980
C          3.57870       -2.09220        1.37560
C          3.01270       -3.36610        0.78280
C          1.88230       -3.93640        1.20810
O          0.53950       -1.37220        1.17650
Cl         5.27870       -1.94680        0.83260
H          3.62170       -2.19550        2.48210
H          3.56920       -3.87440       -0.00030
H          1.30220       -3.51370        2.01900
H          1.54180       -4.86120        0.75310
H          2.42880        0.33670       -0.69920
H          2.22030       -1.33480       -0.91060
H          0.20020        0.45300        2.82020
H          1.88510        0.99430        2.77330
