18
TSA8_9_NH2_NH2_Cl
C          2.93530       -0.83420        0.89770
C          1.49520       -0.87900        1.51500
N          2.88400       -0.90810       -0.56630
H          3.43450        0.12650        1.15600
N          1.32600        0.20770        2.47250
C          3.76350       -1.98410        1.48700
C          3.07430       -3.33590        1.25060
C          1.54410       -3.19820        1.34570
O          1.19860       -2.11120        2.17440
Cl         5.44310       -2.00300        0.88550
H          3.80150       -1.82100        2.58690
H          3.31710       -3.79460        0.26750
H          1.11950       -4.14050        1.74880
H          1.07770       -3.06980        0.34260
H          2.36990       -0.07510       -0.93460
H          2.39100       -1.76540       -0.89850
H          0.36390        0.14860        2.87620
H          1.38990        1.11540        1.95940
