21
TSA8_9_CF3_CN_CBr3
C          2.37530        2.00950       -0.71340
C          1.71190        1.08330       -1.73620
C          2.29770        1.34560        0.69350
H          3.44210        2.04010       -1.01270
C          2.18080       -0.27090       -1.91770
C          1.82040        3.49660       -0.78960
C          0.58750        3.72770        0.07310
C         -0.61300        3.20600       -0.19250
O          0.84710        1.49090       -2.49500
C          2.87660        4.63030       -0.54740
H          1.54990        3.70500       -1.84790
H          0.67190        4.36940        0.94620
H         -0.78890        2.58290       -1.05740
H         -1.44800        3.42440        0.46590
F          3.03810        0.17610        0.70530
F          2.80080        2.15410        1.68420
F          0.98760        1.03010        1.01060
N          2.56010       -1.35460       -2.06630
Br         2.07350        6.35250       -0.98170
Br         3.57900        4.80760        1.25350
Br         4.39220        4.46270       -1.75770
