15
TSA8_9_CN_I_F
C          2.57010        0.28230        1.26360
C          1.54040        1.38790        1.08510
C          2.05390       -0.97470        0.66680
H          3.44210        0.58580        0.65550
I          1.55930        2.55850       -0.66950
C          3.02630        0.07340        2.75590
C          2.15850       -1.00490        3.33560
C          0.90550       -0.74020        3.67840
O          0.78180        1.73340        1.97520
F          4.33770       -0.37120        2.77980
H          3.00700        1.00920        3.36490
H          2.47810       -2.04080        3.22550
H          0.55890        0.27890        3.73150
H          0.21440       -1.54910        3.85280
N          1.59000       -1.97130        0.25250
