23
TSA8_9_CH2F_CH2F_Me
C          2.79180        0.24410       -1.18280
C          1.36210       -0.16660       -1.48170
C          2.89900        0.63900        0.30510
H          3.43480       -0.65200       -1.33500
C          1.06120       -1.57310       -1.91440
C          3.26570        1.33330       -2.19770
C          2.50430        2.63490       -2.05330
C          1.74500        3.12550       -3.03790
O          0.45050        0.64000       -1.36490
C          4.76990        1.62280       -2.10320
H          3.10010        0.91040       -3.21550
H          2.57890        3.19440       -1.12610
H          1.64210        2.60280       -3.98360
H          1.21690        4.06310       -2.89790
F          4.20860        0.87040        0.67840
H          2.52170       -0.19690        0.93290
H          2.28560        1.53580        0.53110
F         -0.29530       -1.74190       -2.13300
H          1.38980       -2.28160       -1.12530
H          1.60810       -1.79610       -2.85420
H          5.04190        2.10080       -1.14140
H          5.06810        2.31950       -2.91630
H          5.35030        0.68390       -2.22520
