23
TSA8_9_CH2F_CH2F_Me
C          2.78610        0.36200       -1.20830
C          1.30940        0.06800       -1.65270
C          2.78330        1.06200        0.16630
H          3.32880       -0.59810       -1.05430
C          1.13520       -1.39440       -2.06220
C          3.47940        1.16000       -2.33990
C          2.69970        2.45200       -2.64740
C          1.18580        2.23540       -2.48650
O          0.85800        0.88710       -2.73270
C          4.96830        1.44490       -2.12110
H          3.40960        0.51590       -3.24540
H          2.99120        3.31740       -2.01290
H          0.64530        2.89910       -3.19210
H          0.83130        2.52970       -1.47380
F          4.06760        1.19610        0.65950
H          2.21670        0.43730        0.88950
H          2.30700        2.06040        0.13320
F         -0.18800       -1.63550       -2.38280
H          1.42190       -2.06130       -1.22190
H          1.77120       -1.62420       -2.94380
H          5.12970        2.13200       -1.26660
H          5.39380        1.92590       -3.02760
H          5.51510        0.49520       -1.93930
