23
TSA8_9_Et_CF3_H
C          1.83780       -0.21640       -0.11180
C          1.41530       -1.17390       -0.99270
C          1.96270        1.27960       -0.27470
H          2.10600       -0.53560        0.89030
C          1.32150       -2.61380       -0.53430
C          3.36110       -0.46880       -4.70180
C          2.86000       -0.10980       -3.51540
C          1.37600       -0.06270       -3.25790
O          1.03800       -0.99680       -2.29720
H          4.43540       -0.50220       -4.84960
H          2.71210       -0.73590       -5.53050
H          3.54480        0.14090       -2.71430
H          0.82710       -0.33370       -4.18380
H          1.02170        0.94700       -3.01510
C          3.39410        1.73790       -0.01580
H          1.30060        1.75430        0.48100
H          1.65220        1.66550       -1.24400
H          3.72450        1.43050        0.99950
H          3.44580        2.84530       -0.08310
H          4.08490        1.30520       -0.76760
F          0.01580       -3.04640       -0.67320
F          2.13630       -3.39100       -1.33710
F          1.70590       -2.79710        0.78380
