23
TSA8_9_Et_CF3_H
C          2.53040       -0.45020       -1.22910
C          1.12640       -1.12260       -1.43680
C          2.35900        0.95050       -0.59120
H          3.13530       -1.04650       -0.50990
C          1.06650       -2.53060       -0.83460
C          3.26270       -0.42660       -2.58250
C          2.42720        0.29370       -3.64960
C          0.92530        0.03820       -3.44020
O          0.72710       -1.20480       -2.80600
H          4.28850       -0.00860       -2.53110
H          3.36950       -1.48500       -2.90760
H          2.59550        1.39140       -3.67040
H          0.41020        0.05770       -4.42260
H          0.44790        0.84620       -2.84200
C          3.69200        1.61750       -0.24770
H          1.78890        0.83450        0.35650
H          1.78520        1.63330       -1.24810
H          4.27570        0.97700        0.44670
H          3.49920        2.59220        0.24820
H          4.28980        1.81240       -1.16080
F         -0.20660       -3.04570       -0.99580
F          1.97270       -3.36180       -1.46830
F          1.35520       -2.48410        0.51760
