22
TSA8_9_Me_CF3_NH2
C          2.72580       -0.73220        0.89050
C          1.32170       -0.49470        1.41310
C          2.74640       -0.54390       -0.63650
H          3.38900        0.04700        1.32840
C          1.05060        0.64040        2.36230
C          3.27210       -2.11020        1.36480
C          2.51670       -3.28380        0.77110
C          1.83960       -4.15120        1.52860
O          0.40370       -1.22160        1.06110
N          4.69900       -2.23380        1.05640
H          3.17550       -2.12270        2.47550
H          2.52990       -3.43360       -0.30430
H          1.79920       -4.04510        2.60780
H          1.31590       -4.98020        1.06330
H          2.08740       -1.28000       -1.14360
H          3.77450       -0.64280       -1.03860
H          2.38400        0.47440       -0.89320
F         -0.28770        0.67430        2.71370
F          1.81030        0.47940        3.50640
F          1.38550        1.83850        1.75840
H          4.85160       -2.32410        0.02710
H          5.07630       -3.09510        1.51440
