22
TSA8_9_Me_CF3_NH2
C          2.73420       -0.85440        0.80610
C          1.27850       -0.83310        1.39540
C          2.69000       -1.00530       -0.72590
H          3.23900        0.11970        0.99450
C          1.06610        0.35020        2.34710
C          3.52660       -1.97200        1.51580
C          2.82380       -3.33400        1.35460
C          1.29520       -3.16370        1.34450
O          0.92360       -2.02940        2.09410
N          4.92820       -2.02870        1.09920
H          3.50370       -1.71840        2.59950
H          3.11220       -3.88260        0.43190
H          0.82460       -4.07550        1.76540
H          0.89390       -3.07750        0.31020
H          2.23290       -1.95930       -1.05080
H          3.71270       -0.95130       -1.15250
H          2.10170       -0.17180       -1.16540
F         -0.24070        0.34920        2.79870
F          1.91730        0.25140        3.43410
F          1.30340        1.54270        1.68750
H          5.00270       -2.37130        0.11480
H          5.43920       -2.70300        1.71430
