18
TSA8_9_OH_Cl_CBr3
C          1.17140       -1.87060       -1.32690
C          1.24410       -1.49730        0.13540
O          0.93910       -0.71420       -2.08890
H          2.15410       -2.31150       -1.60620
Cl         2.71060       -1.80800        1.05100
C          0.07570       -2.94510       -1.59880
C         -1.30200       -2.39670       -1.27180
C         -2.06550       -2.92470       -0.30930
O          0.29920       -0.96040        0.69180
C          0.09760       -3.50860       -3.05180
H          0.30040       -3.80800       -0.93080
H         -1.68370       -1.54880       -1.83260
H         -1.72480       -3.77210        0.27740
H         -3.04470       -2.50550       -0.10370
H          1.80930       -0.24330       -2.17360
Br         1.81200       -4.32300       -3.47350
Br        -1.22610       -4.92140       -3.24080
Br        -0.28610       -2.17720       -4.42080
