18
TSA8_9_CN_Me_F
C          1.63000        0.10740        0.02270
C          1.54240        0.87980        1.13410
C          1.75080       -1.32130        0.03060
H          1.55940        0.56890       -0.94820
C          1.31420        2.34930        0.97520
C          2.20620       -1.95820        4.75020
C          2.11630       -1.63050        3.45740
C          1.04030       -0.71660        2.95000
O          1.59620        0.42620        2.42230
F          3.18420       -2.80070        5.17190
H          1.50440       -1.56060        5.47790
H          2.83310       -2.04030        2.75270
H          0.37080       -0.39830        3.77710
H          0.41300       -1.24490        2.20880
N          1.84840       -2.47280        0.07180
H          1.90220        2.92890        1.71590
H          0.23650        2.52980        1.17880
H          1.53200        2.70530       -0.05410
