22
TSA8_9_OH_CF3_OMe
C          1.74720        0.05580       -0.11860
C          1.44260        1.08180       -0.95240
O          1.96190        0.23030        1.19990
H          1.81420       -0.95730       -0.50330
C          1.18440        0.82270       -2.41810
C          3.95980        4.10930        0.78710
C          3.24200        2.97120        0.73130
C          1.73740        2.98720        0.62350
O          1.33570        2.38700       -0.55620
O          5.31900        4.13550        0.87030
H          3.44420        5.06420        0.76160
H          3.74190        2.01030        0.75540
H          1.36860        4.03510        0.61180
H          1.26430        2.49820        1.49920
H          2.16850       -0.52210        1.77120
F         -0.09380        1.24450       -2.73330
F          2.09220        1.54620       -3.16850
F          1.30260       -0.51560       -2.75450
C          6.15050        3.03410        0.88650
H          7.20370        3.37540        0.95400
H          6.02840        2.44790       -0.04990
H          5.92710        2.39570        1.76770
