27
TSA8_9_Et_CN_Et
C          2.33320       -1.42070       -0.54280
C          1.01660       -1.46420        0.34240
C          2.14580       -0.12380       -1.40660
H          3.18970       -1.37250        0.16750
C          1.15210       -0.64700        1.57070
C          2.45850       -2.71090       -1.49370
C          1.78150       -3.92310       -0.84220
C          0.41720       -3.54090       -0.33790
O          0.62690       -2.73780        0.78420
C          3.83210       -3.30790       -1.97770
H          1.84300       -2.51960       -2.39760
H          2.37900       -4.31440        0.01430
H         -0.12590       -4.45230       -0.02480
H         -0.20120       -3.04370       -1.12770
C          3.40970        0.50290       -1.96310
H          1.64250        0.69680       -0.84650
H          1.45040       -0.36850       -2.24120
H          3.93020        1.07250       -1.16660
H          3.15310        1.19090       -2.79700
H          4.08070       -0.24220       -2.36150
N          1.28770       -0.03720        2.54070
C          4.78940       -2.56630       -2.90730
H          3.54650       -4.19950       -2.58450
H          4.42480       -3.67770       -1.11260
H          4.25760       -2.13170       -3.78000
H          5.52540       -3.30360       -3.30340
H          5.40370       -1.82610       -2.36140
