20
TSA8_9_H_CHF2_CHF2
C          1.85500       -0.02580       -0.20060
C          1.54590        0.37230       -1.45060
H          2.18440        0.65500        0.57210
H          1.76820       -1.06980        0.08490
C          1.06920       -0.63770       -2.45750
C          2.76770        3.88010       -3.39190
C          3.19770        3.38420       -2.21990
C          2.24170        2.74780       -1.25400
O          1.62700        1.66840       -1.86830
C          3.68080        4.52530       -4.39820
H          1.71120        3.81980       -3.64020
H          4.24770        3.43580       -1.94810
H          1.46930        3.49120       -0.96400
H          2.81020        2.46060       -0.35000
F         -0.19230       -0.28580       -2.89970
F          1.93680       -0.65220       -3.53360
H          1.02090       -1.66270       -2.03060
F          4.99770        4.54490       -3.97090
F          3.60530        3.82990       -5.59020
H          3.34700        5.56960       -4.56920
