20
TSA8_9_OMe_NH2_Br
C          0.61780       -1.34810       -0.22120
C          1.58350       -0.87580        0.84880
O          1.32570       -1.62180       -1.41960
H         -0.18210       -0.58750       -0.39220
N          1.42250        0.33220        1.43800
C         -0.09880       -2.63490        0.23210
C         -0.91480       -2.38810        1.47680
C         -0.68420       -3.04310        2.61820
O          2.51720       -1.59110        1.18160
Br        -1.30000       -3.26100       -1.16020
H          0.65800       -3.43240        0.40550
H         -1.71390       -1.65260        1.44400
H          0.10640       -3.78310        2.69260
H         -1.29230       -2.83590        3.49270
C          1.58850       -0.42610       -2.12470
H          2.06480       -0.69020       -3.09110
H          2.30390        0.21730       -1.56870
H          0.65250        0.12210       -2.37180
H          2.08070        0.65040        2.16520
H          0.64230        0.95010        1.17300
