20
TSA8_9_OMe_NH2_Br
C          1.53490        0.13840       -0.12220
C          1.17310       -0.48540        1.00590
O          1.57420       -0.54800       -1.28810
H          1.77770        1.19830       -0.10540
N          1.11440        0.24050        2.22960
C         -1.04380       -4.58820        1.03220
C         -0.95580       -3.25440        1.02530
C          0.08210       -2.52110        1.82370
O          0.87250       -1.81010        0.94330
Br        -2.36940       -5.47310       -0.02310
H         -0.36520       -5.19090        1.62790
H         -1.64560       -2.67670        0.41670
H          0.72160       -3.22930        2.39300
H         -0.44600       -1.85990        2.54100
C          1.83330        0.05980       -2.49420
H          1.81340       -0.70590       -3.29760
H          2.83420        0.54000       -2.47650
H          1.05340        0.82180       -2.70980
H          0.89360       -0.22420        3.12130
H          1.33990        1.24580        2.25640
