22
TSA8_9_NH2_CF3_CHF2
C          3.12690       -1.20840       -0.78170
C          1.67730       -1.41320       -0.38040
N          3.47150        0.21710       -0.75170
H          3.75990       -1.72670       -0.02710
C          1.33890       -2.20950        0.85020
C          3.44020       -1.85520       -2.16330
C          2.68490       -1.19070       -3.29790
C          1.79360       -1.85240       -4.04210
O          0.77940       -0.92610       -1.05200
C          4.94710       -1.83270       -2.47910
H          3.14560       -2.92780       -2.09720
H          2.87350       -0.14540       -3.52420
H          1.57140       -2.89860       -3.85790
H          1.27670       -1.34110       -4.84780
H          2.84000        0.76630       -1.37830
H          3.34900        0.57980        0.22160
F         -0.03220       -2.27500        1.02770
F          1.83600       -3.49340        0.72200
F          1.90620       -1.60980        1.95950
F          5.42200       -0.53640       -2.57790
F          5.65550       -2.50210       -1.49630
H          5.13050       -2.34880       -3.44610
