19
TSA8_9_OMe_CN_Br
C          1.38590       -1.27480       -0.90650
C          1.65510       -1.75550        0.54950
O          2.29290       -0.25440       -1.28950
H          0.32820       -0.92670       -0.93870
C          1.27260       -0.75990        1.55770
C          1.52310       -2.54140       -1.75830
C          0.32150       -3.43470       -1.41150
C         -0.04060       -3.31660        0.08960
O          1.11410       -3.04670        0.86500
Br         1.64060       -2.26330       -3.67570
H          2.46640       -3.06640       -1.47340
H         -0.58030       -3.09390       -1.97310
H         -0.53820       -4.24770        0.42420
H         -0.78580       -2.50330        0.26410
C          1.66090        0.71860       -2.11990
H          2.12010        0.70680       -3.12880
H          1.78220        1.72160       -1.66510
H          0.56500        0.59110       -2.28860
N          0.97340        0.02110        2.35450
