15
TSA8_9_F_I_CN
C          2.09170        0.66960        1.67230
C          2.07810        1.94470        0.87100
F          2.95030       -0.35670        1.31350
H          1.15580        0.30980        1.22490
I          1.53170        1.83190       -1.17580
C          1.82990        0.81130        3.21130
C          0.58450        0.03020        3.45060
C         -0.57470        0.57810        3.07290
O          1.96120        3.02830        1.41670
C          2.87660        0.35400        4.15340
H          1.62620        1.88820        3.49520
H          0.63100       -1.02450        3.70970
H         -0.59480        1.60980        2.72080
H         -1.48150       -0.00450        3.05790
N          3.68880        0.07480        4.92830
