20
TSA8_9_H_Cl_Et
C          3.48180        0.36690        1.42300
C          1.96190        0.66880        1.29970
H          3.67780       -0.67230        1.08260
H          4.06160        1.05070        0.76570
Cl         1.71540        2.43150        1.16740
C          3.87970        0.49190        2.89920
C          3.06300       -0.51530        3.74150
C          1.74700       -0.90190        3.04020
O          1.16810        0.21310        2.39830
C          5.40280        0.40780        3.14780
H          3.56600        1.50810        3.22650
H          3.59170       -1.46440        3.96040
H          1.04230       -1.31630        3.79050
H          1.91690       -1.71140        2.29320
C          6.06550       -0.89230        2.67960
H          5.59820        0.54220        4.23420
H          5.89210        1.24830        2.60890
H          5.65650       -1.77590        3.20780
H          7.15390       -0.84230        2.89370
H          5.93930       -1.02740        1.58570
