21
TSA8_9_OMe_CCl3_F
C          1.11470        0.49080       -1.32840
C          1.66130       -0.88130       -1.66270
O          2.22110        1.29720       -0.95210
H          0.37260        0.36870       -0.50160
C          1.29270       -2.10250       -0.84140
C          0.38850        1.16580       -2.52130
C         -0.84220        0.43640       -3.00780
C         -0.80010       -0.74520       -3.63050
O          2.45430       -0.98720       -2.58810
F         -0.01240        2.42900       -2.12090
H          1.09090        1.29530       -3.37280
H         -1.81150        0.91030       -2.87640
H          0.13500       -1.25720       -3.82090
H         -1.72080       -1.20910       -3.96990
C          1.95320        2.02710        0.22690
H          1.19440        2.81640        0.04300
H          2.88810        2.53100        0.54480
H          1.65370        1.36100        1.06710
Cl         2.08780       -3.57820       -1.46140
Cl         1.81730       -1.86600        0.84490
Cl        -0.46670       -2.38390       -0.85130
