18
TSA8_9_H_OMe_H
C          2.32260       -1.71410        0.53550
C          1.82210       -1.72290        1.95090
H          1.45350       -1.60300       -0.14770
H          2.99940       -0.84360        0.39040
O          2.24850       -0.76860        2.81650
C          3.09140       -3.00530        0.22380
C          3.62810       -3.01260       -1.18230
C          2.82460       -2.98700       -2.25030
O          1.03320       -2.58710        2.31050
H          3.94880       -3.08740        0.92720
H          2.43370       -3.89070        0.36520
H          4.70290       -3.05260       -1.33300
H          1.74510       -2.95780       -2.14040
H          3.24960       -3.00030       -3.24860
C          1.86120       -0.70590        4.13830
H          2.35100        0.16460        4.62080
H          2.17020       -1.63090        4.67070
H          0.75920       -0.58260        4.20940
