23
TSA8_9_Et_NO2_OH
C          2.49030        1.41970       -0.16430
C          1.41750        1.20060       -1.22890
C          2.28990        0.36610        0.95870
H          3.47560        1.21870       -0.63540
N          1.74390        0.91040       -2.52220
C          2.56930        2.90010        0.33460
C          1.43810        3.35010        1.24010
C          0.19410        3.59270        0.81900
O          0.23850        1.24980       -0.90890
O          3.78000        3.06580        1.02890
H          2.60890        3.56150       -0.56420
H          1.66000        3.53130        2.28850
H         -0.08960        3.48990       -0.21940
H         -0.55570        3.93250        1.52640
C          3.39100        0.33860        2.01830
H          2.26900       -0.64110        0.48620
H          1.31220        0.52640        1.46360
H          4.37950        0.16610        1.54260
H          3.19060       -0.48950        2.73050
H          3.41110        1.27810        2.60490
O          0.88290        0.72620       -3.32980
O          3.00110        0.83210       -2.90380
H          4.00890        4.03220        0.99720
