16
TSA8_9_NO2_Br_F
C          1.98620       -0.11260        0.01880
C          1.23390       -1.11320        0.51010
N          2.31640        0.02390       -1.36210
H          2.36070        0.63510        0.71320
Br         0.88450       -1.13320        2.40450
C         -0.12810       -5.27540       -1.07770
C         -0.42500       -3.97200       -1.05970
C         -0.09020       -3.09720        0.11280
O          0.73690       -2.07780       -0.30610
F         -0.44940       -6.03070       -2.16000
H          0.36900       -5.74800       -0.23590
H         -0.92390       -3.52890       -1.91680
H          0.41330       -3.68420        0.91300
H         -1.03340       -2.67070        0.51770
O          2.98690        0.94660       -1.71310
O          1.89160       -0.83860       -2.26080
