22
TSA8_9_CN_OMe_Me
C          2.86630        1.24000       -0.26950
C          1.63910        1.27550       -1.18310
C          2.40480        0.57660        0.98900
H          3.59840        0.58370       -0.78200
O          1.67250        0.59510       -2.35350
C          3.43020        2.73200       -0.07010
C          2.72440        3.22470        1.14840
C          1.52450        3.76340        1.08810
O          0.63880        1.92140       -0.90640
C          4.93050        3.13220        0.13330
H          3.16610        3.28230       -1.00610
H          3.11940        2.89620        2.11210
H          1.08540        4.00170        0.12980
H          0.97350        3.87330        2.00860
N          1.96520        0.07450        1.93540
C          1.62960        1.25100       -3.56040
H          1.61130        0.50280       -4.37900
H          2.55300        1.86070       -3.65070
H          0.73840        1.91060       -3.63940
H          5.64910        2.71050       -0.59920
H          5.31820        2.97460        1.16490
H          5.00330        4.24320       -0.01140
