22
TSA8_9_CN_OMe_Me
C          2.93950        1.30240       -0.23830
C          1.50370        1.40730       -0.83720
C          2.72100        0.71260        1.09900
H          3.56310        0.60660       -0.84000
O          1.30310        0.65720       -2.02480
C          3.50810        2.74930       -0.20650
C          2.60620        3.59930        0.68670
C          1.12630        3.36700        0.35840
O          0.95850        2.72730       -0.89420
C          4.97150        3.03870        0.16170
H          3.42670        3.11500       -1.25230
H          2.77600        3.35470        1.76470
H          0.66330        4.37210        0.32670
H          0.61210        2.79020        1.16060
N          2.53080        0.20930        2.12690
C          1.59820        1.42440       -3.17320
H          1.62020        0.74630       -4.05190
H          2.59940        1.90240       -3.11750
H          0.79710        2.17170       -3.36600
H          5.68540        2.51610       -0.50770
H          5.21170        2.83650        1.22510
H          5.13110        4.13260       -0.00710
