21
TSA8_9_CCl3_CCl3_OH
C          1.62000       -0.03800       -0.02070
C          1.44810       -1.21750       -0.67950
C          1.84150        1.32120       -0.65970
H          1.56150       -0.02940        1.06000
C          1.17540       -2.52680        0.05130
C          3.67510       -2.55120       -4.57890
C          2.67420       -2.42110       -3.69700
C          2.57020       -1.19790       -2.83730
O          1.44860       -1.27700       -2.03880
O          3.78710       -3.64870       -5.35930
H          4.41700       -1.76350       -4.67750
H          1.93130       -3.20950       -3.60090
H          2.47970       -0.30570       -3.49280
H          3.49470       -1.12430       -2.22230
Cl         0.57290        1.68890       -1.85750
Cl         1.76980        2.58030        0.60160
Cl         3.44740        1.46100       -1.41580
Cl         2.43290       -3.71150       -0.38120
Cl         1.13430       -2.42810        1.83950
Cl        -0.40110       -3.16350       -0.48100
H          3.15930       -4.38360       -5.31340
