21
TSA8_9_CCl3_CCl3_OH
C          2.73490       -1.09750       -1.32570
C          1.21590       -1.40850       -1.18890
C          3.03560        0.40370       -1.02730
H          3.27010       -1.62670       -0.50470
C          0.80470       -2.70480       -0.44320
C          3.31170       -1.60540       -2.68250
C          2.22100       -2.08030       -3.65080
C          1.01160       -1.15830       -3.58680
O          0.38870       -1.08110       -2.30720
O          4.21530       -2.65470       -2.44890
H          3.85750       -0.76480       -3.17070
H          1.87920       -3.10410       -3.42470
H          0.26280       -1.54280       -4.31040
H          1.29390       -0.14670       -3.93410
Cl         2.27910        1.54710       -2.16910
Cl         2.45680        0.83150        0.60780
Cl         4.79680        0.70610       -1.04290
Cl         1.44550       -4.20630       -1.15420
Cl         1.38230       -2.62650        1.24160
Cl        -0.97240       -2.83240       -0.37720
H          4.66900       -2.84560       -3.31210
