22
TSA8_9_NO2_I_Et
C          2.95940       -0.33690        1.01950
C          1.63510        0.36640        1.38800
N          2.69090       -1.38460        0.04990
H          3.58890        0.45020        0.54740
I          1.80350        2.44690        1.93540
C          3.68030       -0.93850        2.26740
C          3.02660       -0.42390        3.54860
C          1.51530       -0.74380        3.49140
O          0.83460       -0.36980        2.29260
C          5.19680       -0.65260        2.29010
H          3.52840       -2.04110        2.29330
H          3.19980        0.66360        3.66720
H          1.01660       -0.27650        4.36510
H          1.41090       -1.84550        3.58960
O          3.16210       -1.32590       -1.04310
O          1.90380       -2.39450        0.36060
C          5.94190       -1.25370        1.09950
H          5.62950       -1.08540        3.21830
H          5.36910        0.44650        2.30790
H          5.80750       -2.35530        1.07790
H          7.02530       -1.02780        1.19420
H          5.58440       -0.82010        0.14360
