20
TSA8_9_CH2F_I_CCl3
C          1.52070       -2.02050        1.07080
C          1.01550       -0.59620        1.18320
C          1.47810       -2.44040       -0.41060
H          2.59020       -1.99080        1.36790
I          2.30190        0.93490        1.86200
C          0.75740       -2.94470        2.08960
C         -0.73820       -2.96400        1.82020
C         -1.62260       -2.47240        2.69450
O         -0.12830       -0.30570        0.86830
C          1.28320       -4.40640        2.24090
H          0.94050       -2.46860        3.08110
H         -1.10810       -3.38930        0.89250
H         -1.30130       -2.03760        3.63590
H         -2.68320       -2.50370        2.46820
F          2.20030       -3.59500       -0.62980
H          1.96560       -1.65320       -1.02600
H          0.43550       -2.56030       -0.77160
Cl         0.53810       -5.15170        3.68470
Cl         0.87940       -5.48130        0.86880
Cl         3.04870       -4.44160        2.50390
