14
TSA8_9_F_I_Cl
C          1.19210       -0.87750       -1.28470
C          1.85010       -1.54700       -0.10730
F          2.17570       -0.32460       -2.08730
H          0.53280       -0.05830       -0.92390
I          1.39160       -0.94100        1.86040
C          0.35540       -1.87780       -2.09860
C         -0.76410       -2.43790       -1.25840
C         -0.85800       -3.74180       -0.98050
O          2.64910       -2.45460       -0.28260
Cl        -0.35610       -1.06580       -3.51900
H          1.02120       -2.68890       -2.46930
H         -1.51340       -1.75930       -0.86050
H         -0.12450       -4.45010       -1.35270
H         -1.67530       -4.10600       -0.36700
