14
TSA8_9_F_I_Cl
C          1.11630       -0.88940       -1.44560
C          1.34070       -1.58630       -0.08530
F          2.32780       -0.57030       -2.03170
H          0.57030        0.05570       -1.23820
I          0.12500       -0.83620        1.53000
C          0.31020       -1.78310       -2.40230
C         -0.73960       -2.52350       -1.59110
C          0.01410       -3.46910       -0.62450
O          1.28680       -2.99690       -0.17390
Cl        -0.42360       -0.81760       -3.70890
H          0.97470       -2.54760       -2.86430
H         -1.34790       -1.77570       -1.03670
H          0.22200       -4.39080       -1.20720
H         -0.63470       -3.75890        0.22880
