25
TSA8_9_OMe_Me_OMe
C          1.55720       -0.12770        0.09840
C          1.36730       -0.57640       -1.14940
O          1.60020        1.20830        0.32090
H          1.64940       -0.82230        0.92920
C          1.27590       -2.04840       -1.44840
C          0.46390        3.00590       -2.90990
C         -0.33540        1.97770       -2.56790
C          0.08140        0.56040       -2.83830
O          1.25090        0.33110       -2.14670
O          0.17330        4.30790       -2.64360
H          1.40090        2.79390       -3.41630
H         -1.28220        2.14820       -2.06320
H          0.24030        0.40030       -3.92520
H         -0.73210       -0.11790       -2.49260
C          1.66080        1.75360        1.58090
H          1.67740        2.85970        1.49460
H          2.58060        1.41490        2.10140
H          0.76320        1.45660        2.16510
H          2.07960       -2.32700       -2.16150
H          0.29210       -2.28150       -1.90420
H          1.39190       -2.66390       -0.53020
C         -0.89490        4.76040       -1.89750
H         -0.85220        5.86750       -1.83980
H         -0.83710        4.35180       -0.86520
H         -1.85340        4.46440       -2.37260
