25
TSA8_9_OMe_Me_OMe
C          0.91120        0.99180       -0.88480
C          1.57210       -0.00830       -1.87880
O          1.90300        1.41890        0.03560
H          0.03840        0.49020       -0.39660
C          1.79370       -1.39140       -1.27230
C          0.38200        2.17380       -1.70870
C         -0.65670        1.65810       -2.73200
C         -0.41620        0.18430       -3.10200
O          0.96510       -0.09300       -3.17010
O         -0.20160        3.14360       -0.85800
H          1.27170        2.57460       -2.25410
H         -1.69960        1.73000       -2.35400
H         -0.89920       -0.03230       -4.07690
H         -0.89710       -0.49450       -2.36040
C          1.37560        1.52420        1.34050
H          0.64390        2.35620        1.41090
H          2.20910        1.76030        2.03360
H          0.93760        0.56220        1.68730
H          2.36580       -2.02180       -1.98470
H          0.81880       -1.87940       -1.06130
H          2.37230       -1.30790       -0.32860
C         -0.18960        4.41090       -1.47690
H          0.85050        4.77820       -1.61780
H         -0.70300        5.13000       -0.80640
H         -0.75400        4.40160       -2.43540
