26
TSA8_9_Et_CCl3_Me
C          2.57000       -1.61490       -0.69540
C          1.36070       -2.39200       -0.18280
C          2.15190       -0.13610       -0.90580
H          3.34270       -1.62200        0.10560
C          1.33760       -2.97530        1.21850
C          3.21740       -2.24920       -1.97250
C          2.28310       -2.24810       -3.16630
C          2.56110       -1.56830       -4.28340
O          0.37400       -2.50570       -0.89600
C          3.70250       -3.68040       -1.71900
H          4.12780       -1.66140       -2.21650
H          1.36210       -2.81970       -3.13010
H          1.86930       -1.59620       -5.11900
H          3.47020       -0.98360       -4.37650
C          3.32240        0.79380       -1.23310
H          1.69640        0.23770        0.03730
H          1.38660       -0.05780       -1.70790
H          4.08730        0.74610       -0.42940
H          2.95150        1.83790       -1.30600
H          3.78910        0.53620       -2.20440
Cl         2.64630       -4.16250        1.44170
Cl         1.54010       -1.67360        2.41890
Cl        -0.20970       -3.80040        1.56450
H          2.85320       -4.35420       -1.47860
H          4.43050       -3.69370       -0.88020
H          4.21510       -4.07370       -2.62320
