26
TSA8_9_Et_CCl3_Me
C          1.70740       -0.18050        0.05530
C          1.37160       -1.48470       -0.15140
C          1.82470        0.89590       -0.99740
H          1.88130        0.17580        1.06180
C          1.19200       -2.46340        1.00160
C          3.87810       -3.52640       -2.68840
C          2.55970       -3.28160       -2.76130
C          2.00710       -1.91580       -2.47630
O          1.16430       -2.02300       -1.38610
C          4.44920       -4.89240       -2.91440
H          4.56950       -2.72570       -2.44150
H          1.86540       -4.08270       -2.99930
H          1.43970       -1.54010       -3.35340
H          2.84950       -1.22480       -2.27050
C          3.24320        1.45580       -1.03130
H          1.12020        1.71160       -0.73070
H          1.53540        0.55150       -2.00650
H          3.52310        1.86500       -0.03700
H          3.30050        2.27500       -1.78060
H          3.96790        0.66500       -1.31340
Cl         2.29370       -3.84410        0.76120
Cl         1.50560       -1.81280        2.63970
Cl        -0.48100       -3.07610        0.97840
H          3.65890       -5.63950       -3.13830
H          4.98780       -5.20910       -1.99680
H          5.16530       -4.85560       -3.76050
