18
TSA8_9_Cl_F_OMe
C          2.13300       -1.85060        1.90040
C          1.40850       -0.88530        0.99920
Cl         3.19610       -2.87810        0.89690
H          2.78530       -1.26710        2.58760
F          0.57270       -1.34000        0.02850
C          1.15210       -2.67390        2.77160
C          0.17260       -3.49530        1.93200
C         -1.14800       -3.29210        1.98000
O          1.57870        0.31720        1.12540
O          1.87280       -3.40390        3.76740
H          0.55210       -1.93090        3.34320
H          0.55160       -4.26780        1.26920
H         -1.57910       -2.53160        2.62350
H         -1.81090       -3.89410        1.36720
C          2.04620       -4.78000        3.49480
H          2.73150       -5.20010        4.25880
H          2.52560       -4.95630        2.51100
H          1.08390       -5.32780        3.58980
