18
TSA8_9_Cl_F_OMe
C          2.15690       -1.68060        1.87930
C          1.01800       -0.93050        1.13950
Cl         3.43790       -2.09980        0.69450
H          2.62960       -1.02200        2.63930
F          0.86930       -1.33800       -0.18100
C          1.60910       -2.92350        2.62550
C          0.45150       -3.49780        1.80990
C         -0.67110       -2.42710        1.80590
O         -0.21440       -1.07060        1.81600
O          2.64610       -3.86410        2.84120
H          1.18720       -2.56160        3.59650
H          0.81550       -3.71760        0.78230
H         -1.22920       -2.56850        2.75520
H         -1.38280       -2.60690        0.97230
C          2.26890       -4.79410        3.83410
H          2.07030       -4.29460        4.80820
H          3.11630       -5.49080        3.99790
H          1.40150       -5.40680        3.50480
