23
TSA8_9_CBr3_CHF2_Me
C          1.44000       -0.40210        0.07480
C          2.02850       -1.12020        1.07330
C          2.02150       -0.03420       -1.27980
H          0.43380       -0.04150        0.24720
C          3.43700       -1.66670        0.99680
C         -0.90820       -2.67720        4.40050
C         -0.28070       -2.73060        3.21710
C         -0.01270       -1.49810        2.40460
O          1.35490       -1.38330        2.23090
C         -1.14540       -3.91890        5.20280
H         -1.25200       -1.72610        4.79810
H          0.05630       -3.68810        2.82830
H         -0.39160       -0.59010        2.92180
H         -0.54450       -1.61180        1.43650
Br         0.68950        0.95430       -2.28930
Br         3.56570        1.13200       -1.15800
Br         2.45230       -1.60730       -2.32900
F          4.36340       -0.64930        0.94080
F          3.70880       -2.42310        2.12480
H          3.54860       -2.33360        0.12090
H         -0.17340       -4.38990        5.46280
H         -1.75940       -4.63830        4.62120
H         -1.68120       -3.66300        6.14090
