17
TSA8_9_CH2F_Cl_I
C          1.81240       -0.00300        0.03460
C          1.10700       -0.04300        1.17580
C          2.14320       -1.22300       -0.77850
H          2.16500        0.95640       -0.33430
Cl         0.78660        1.47640        2.01940
C         -0.07250       -3.42380        4.15440
C         -0.42830       -2.80160        3.02550
C         -0.12740       -1.35000        2.79180
O          0.65250       -1.22740        1.66200
I         -0.51880       -5.46720        4.43670
H          0.44970       -2.89540        4.94560
H         -0.95120       -3.35540        2.25200
H          0.40600       -0.91060        3.66420
H         -1.08570       -0.80780        2.64560
F          3.51540       -1.34280       -0.88480
H          1.71020       -1.10700       -1.79410
H          1.73760       -2.15460       -0.33220
