19
TSA8_9_OMe_OH_Br
C          0.47770       -0.63790       -1.24120
C          1.26110       -1.28220       -0.06980
O          1.33010        0.13670       -2.06570
H         -0.35290       -0.02480       -0.81240
O          0.67740       -1.01530        1.17300
C         -0.18340       -1.72970       -2.09840
C         -0.83940       -2.72340       -1.14980
C          0.27620       -3.41100       -0.33280
O          1.49160       -2.66920       -0.23020
Br        -1.48190       -0.96440       -3.32070
H          0.58040       -2.27190       -2.70210
H         -1.52690       -2.15930       -0.48310
H          0.53140       -4.33500       -0.89310
H         -0.09720       -3.72740        0.66500
C          1.54400        1.40770       -1.48970
H          2.10950        2.02900       -2.21370
H          2.15740        1.32820       -0.56570
H          0.58840        1.94630       -1.29830
H          1.37960       -0.53300        1.67770
