19
TSA8_9_NO2_I_CF3
C          2.77300        1.57360        0.42920
C          1.44340        1.97840       -0.15380
N          2.77160        0.14120        0.70720
H          3.51230        1.78880       -0.37300
I          1.37210        2.73230       -2.13060
C          3.14970        2.44810        1.67750
C          2.75460        1.80400        2.99430
C          1.87530        2.34270        3.83970
O          0.41420        1.89080        0.49660
C          4.65960        2.75810        1.71230
H          2.65860        3.44210        1.56780
H          3.22350        0.86230        3.27260
H          1.38180        3.28130        3.61830
H          1.64880        1.83020        4.77050
O          3.54230       -0.57620        0.14190
O          1.86310       -0.38960        1.49530
F          5.40400        1.59490        1.79350
F          5.02320        3.44770        0.56700
F          4.95040        3.56040        2.80290
