19
TSA8_9_NO2_I_CF3
C          1.75180        0.05670       -0.03010
C          1.49960        1.38620       -0.02290
N          1.60660       -0.83870        1.06700
H          2.06840       -0.37370       -0.97660
I          1.64880        2.40730       -1.86640
C          3.90440        3.62940        2.51230
C          3.30960        2.51900        2.04840
C          1.84560        2.24100        2.26530
O          1.17300        2.15770        1.05400
C          5.37180        3.90890        2.32020
H          3.31980        4.36560        3.05670
H          3.88420        1.77560        1.50440
H          1.37010        3.04770        2.86380
H          1.76870        1.32540        2.86480
O          1.97470       -1.96650        0.93790
O          0.82180       -0.54690        2.07960
F          6.00750        2.89320        1.62500
F          5.52030        5.08950        1.61950
F          5.97000        4.04010        3.55910
