19
TSA8_9_NO2_I_CF3
C          2.80800        1.55800        0.55050
C          1.28530        1.90200        0.41190
N          2.99690        0.18780        1.01800
H          3.27300        1.62140       -0.45760
I          0.97070        3.15520       -1.29860
C          3.43090        2.61990        1.49480
C          2.74510        2.56710        2.87240
C          1.27010        2.15440        2.74700
O          0.72340        2.60090        1.52610
C          4.96710        2.62390        1.62010
H          3.16700        3.60130        1.03940
H          3.22680        1.86040        3.58310
H          0.70240        2.58180        3.59910
H          1.14700        1.05430        2.83260
O          4.09270       -0.28050        1.06340
O          1.96320       -0.60320        1.22320
F          5.43650        1.49660        2.26720
F          5.54150        2.70020        0.36410
F          5.36190        3.73150        2.34990
