17
TSA8_9_F_CH2F_F
C          2.97480        1.94830       -0.34580
C          1.46140        1.59940       -0.17480
F          3.74340        1.08370        0.41670
H          3.29360        1.81990       -1.40300
C          0.67700        1.93650       -1.44410
C          3.20040        3.38100        0.13460
C          2.79060        3.51340        1.61070
C          1.71890        2.47590        1.99220
O          0.82480        2.26500        0.92190
F          4.51770        3.76950       -0.03440
H          2.55480        4.05120       -0.47190
H          3.64700        3.36760        2.30450
H          1.16830        2.83110        2.88770
H          2.18240        1.50590        2.28400
F         -0.64130        1.54760       -1.29250
H          1.10540        1.39070       -2.31110
H          0.71050        3.02700       -1.64960
