17
TSA8_9_CF3_Br_H
C          1.75000       -1.36220        0.93160
C          0.91880       -0.13030        1.21400
C          1.70570       -1.71690       -0.57000
H          2.80430       -1.09960        1.17040
Br         1.74890        1.43690        1.92980
C          1.41290       -2.57770        1.84060
C          0.03790       -3.18440        1.68770
C         -1.07360       -2.59940        2.14240
O         -0.26940       -0.09060        0.93830
H          2.14670       -3.37420        1.59080
H          1.57680       -2.31860        2.90940
H         -0.04590       -4.16420        1.22640
H         -1.04270       -1.64480        2.65440
H         -2.03240       -3.09330        2.02310
F          2.55560       -2.77680       -0.83390
F          0.42410       -2.06370       -0.96160
F          2.12050       -0.62980       -1.32000
