17
TSA8_9_CF3_Br_H
C          1.82770       -0.02000        0.00740
C          1.11400       -0.41790        1.07510
C          2.23420       -0.89920       -1.15000
H          2.14120        1.01890       -0.04150
Br         0.70730        0.89350        2.42620
C          0.00700       -4.53670        2.94790
C         -0.34820       -3.63330        2.02910
C         -0.10130       -2.16570        2.22120
O          0.69270       -1.70340        1.19440
H         -0.18770       -5.59020        2.77640
H          0.48970       -4.23840        3.87370
H         -0.83120       -3.96860        1.11610
H          0.39700       -1.97340        3.19730
H         -1.07840       -1.63620        2.20400
F          3.61270       -0.90400       -1.24670
F          1.79670       -2.20510       -1.01570
F          1.70620       -0.37590       -2.31490
