17
TSA8_9_Cl_Br_CBr3
C          1.89790        1.88030       -1.35380
C          0.62890        1.73420       -2.14570
Cl         1.58790        1.16270        0.25950
H          2.69330        1.27140       -1.83400
Br         0.59800        0.65610       -3.72720
C          2.39130        3.35510       -1.21550
C          3.61060        3.35990       -0.30900
C          3.61920        3.99940        0.86570
O         -0.39860        2.28060       -1.77480
C          2.75730        4.06220       -2.56230
H          1.58030        3.94830       -0.73570
H          4.50500        2.82620       -0.61740
H          2.74800        4.54400        1.21620
H          4.50810        3.97910        1.48740
Br         1.23220        4.34980       -3.73270
Br         3.45220        5.84890       -2.22130
Br         4.11100        3.09230       -3.57030
