17
TSA8_9_Cl_Br_CBr3
C          1.80470        0.11050       -0.12180
C          1.44270        1.20760       -0.80010
Cl         2.05060        0.12190        1.62050
H          1.93280       -0.83010       -0.64760
Br         1.13970        1.09120       -2.68530
C          2.36750        4.56070       -1.87060
C          3.01360        3.78660       -0.98350
C          2.30070        3.21980        0.21370
O          1.25840        2.39850       -0.17560
C          3.05660        5.14790       -3.07420
H          1.31290        4.77280       -1.71450
H          4.06900        3.56720       -1.11680
H          1.89280        4.06020        0.81380
H          3.01820        2.65920        0.84970
Br         1.80010        6.21150       -4.09770
Br         4.52050        6.29830       -2.52900
Br         3.74040        3.74340       -4.22360
