21
TSA8_9_Et_Cl_OH
C          2.42840       -0.75500        1.14860
C          0.99430       -0.50930        1.72570
C          2.31850       -1.12760       -0.35480
H          3.00380        0.19680        1.18840
Cl         0.94360        1.03060        2.62640
C          3.11830       -1.80490        2.04950
C          2.30250       -3.10450        2.08690
C          0.79280       -2.80610        2.05690
O          0.53000       -1.53400        2.60540
O          4.44450       -2.07120        1.68450
H          3.10840       -1.40440        3.09120
H          2.53470       -3.80020        1.25150
H          0.25620       -3.59060        2.62900
H          0.37970       -2.86020        1.02550
C          3.66300       -1.22140       -1.07730
H          1.74060       -0.32170       -0.85880
H          1.77070       -2.07760       -0.50750
H          4.22770       -0.27130       -0.96790
H          3.48430       -1.40240       -2.15830
H          4.27180       -2.06520       -0.70060
H          4.97690       -1.27470        1.94470
