17
TSA8_9_Br_F_Me
C          2.08300       -0.05220        0.25870
C          1.22820        0.39890        1.18080
Br         2.75160       -1.84660        0.30130
H          2.40870        0.60380       -0.54190
F          0.77860        1.68180        1.09880
C          0.66730       -1.58080        4.88280
C         -0.33300       -1.12470        4.11430
C         -0.11060       -0.01790        3.12680
O          0.81390       -0.41160        2.18350
C          0.46220       -2.68070        5.88140
H          1.65970       -1.14740        4.79300
H         -1.32900       -1.54970        4.20320
H          0.25140        0.88550        3.66570
H         -1.07300        0.22150        2.62440
H          1.13460       -3.52850        5.63550
H         -0.58670       -3.04710        5.88510
H          0.71040       -2.30430        6.89560
