21
TSA8_9_NH2_NO2_CBr3
C          2.23340       -1.09370       -2.23640
C          0.94120       -1.86490       -1.98470
N          2.22820        0.08780       -1.36230
H          3.09380       -1.73680       -1.95260
N          0.77100       -2.56870       -0.83010
C          2.47820       -0.63940       -3.71760
C          3.67780        0.29900       -3.71270
C          3.58710        1.58580       -4.06050
O          0.02790       -1.80630       -2.79420
C          2.76990       -1.78810       -4.75020
H          1.57890       -0.07840       -4.05810
H          4.64670       -0.08180       -3.40230
H          2.64290        2.02090       -4.36920
H          4.47220        2.21320       -4.03070
H          2.14610       -0.18530       -0.35720
H          1.41900        0.70610       -1.60790
O         -0.25490       -3.14650       -0.62450
O          1.73390       -2.64030        0.06430
Br         3.02590       -1.01780       -6.51960
Br         4.38000       -2.79560       -4.31580
Br         1.36080       -3.10060       -4.99340
