18
TSA8_9_CCl3_CN_H
C          1.19700       -1.62360        0.62220
C          2.23290       -1.23150        1.67100
C          1.65350       -1.29910       -0.85090
H          0.29860       -1.00570        0.82840
C          1.89860       -0.29400        2.70840
C          0.76930       -3.09110        0.88490
C         -0.60470       -3.39120        0.33260
C         -1.69240       -2.73300        0.76250
O          3.31120       -1.80230        1.71370
H          1.53590       -3.79010        0.48710
H          0.68810       -3.26430        1.98300
H         -0.72240       -4.16110       -0.42180
H         -1.62230       -1.96330        1.52750
H         -2.67150       -2.95790        0.35460
Cl         0.82010       -2.27360       -2.10380
Cl         1.28480        0.40400       -1.22220
Cl         3.40430       -1.53820       -1.14860
N          1.62980        0.45800        3.53870
