18
TSA8_9_CCl3_CN_H
C          1.68110       -0.03010        0.09030
C          1.40920       -0.87390        1.09980
C          1.81620       -0.37490       -1.38480
H          1.81010        1.02500        0.33440
C          1.27860       -0.35160        2.44700
C         -0.57260       -5.01630        1.84440
C         -0.11770       -4.17850        0.91210
C         -0.03640       -2.71560        1.18650
O          1.20220       -2.19800        0.89380
H         -0.68020       -6.06890        1.62000
H         -0.86640       -4.65090        2.82580
H          0.14250       -4.55020       -0.07450
H         -0.31870       -2.48170        2.23690
H         -0.76750       -2.25240        0.50590
Cl         1.24710       -1.99740       -1.88400
Cl         0.92140        0.81160       -2.36890
Cl         3.53790       -0.24000       -1.78660
N          1.16720        0.02970        3.53150
