20
TSA8_9_CBr3_F_CF3
C          0.21490       -1.46250       -0.85690
C          0.59240       -0.96280        0.52620
C          1.40440       -1.23550       -1.85820
H         -0.59150       -0.78420       -1.21410
F         -0.06270        0.10310        1.05660
C         -0.45450       -2.88520       -0.70660
C          0.42990       -3.92120       -0.03580
C          0.13300       -4.43320        1.16380
O          1.48440       -1.49350        1.16920
C         -1.04200       -3.49740       -1.99190
H         -1.33340       -2.70080       -0.04490
H          1.32100       -4.27860       -0.53540
H          0.78310       -5.17770        1.61190
H         -0.75180       -4.11850        1.70850
Br         2.02180        0.60960       -1.73660
Br         2.96570       -2.34910       -1.54810
Br         0.88710       -1.40060       -3.72320
F         -0.04510       -3.93210       -2.84510
F         -1.85120       -2.58050       -2.63870
F         -1.81600       -4.59690       -1.66050
