20
TSA8_9_CBr3_F_CF3
C          1.86140       -0.02930        0.01890
C          1.16720       -1.08760        0.47580
C          2.18490        0.32410       -1.41970
H          2.23190        0.66750        0.76820
F          0.97650       -1.20370        1.82010
C         -1.33400       -4.98120       -0.91480
C         -0.50530       -3.94050       -1.07560
C         -0.17330       -3.03770        0.07580
O          0.65740       -2.02660       -0.35460
C         -1.66770       -5.89420       -2.05720
H         -1.77650       -5.17340        0.05960
H         -0.06830       -3.74240       -2.05050
H          0.33040       -3.63370        0.86880
H         -1.10980       -2.59580        0.48290
Br         1.43620        2.07180       -1.78360
Br         4.10730        0.44150       -1.60070
Br         1.54350       -0.87580       -2.81360
F         -0.51620       -6.50390       -2.52170
F         -2.25030       -5.17270       -3.08300
F         -2.55230       -6.86760       -1.63090
