20
TSA8_9_CBr3_F_CF3
C         -0.00820       -1.85560       -0.92340
C          0.42350       -1.57580        0.53510
C          1.10630       -1.36180       -1.91460
H         -0.87950       -1.19860       -1.13940
F         -0.65420       -1.55100        1.41030
C         -0.52100       -3.34020       -0.95790
C          0.50130       -4.30200       -0.33550
C          0.91320       -3.78880        1.04810
O          1.43120       -2.47110        0.97780
C         -1.02480       -3.88380       -2.30490
H         -1.40830       -3.35980       -0.28380
H          1.38910       -4.42390       -0.98270
H          1.69930       -4.46070        1.45100
H          0.06040       -3.84480        1.76080
Br         1.52130        0.50140       -1.52560
Br         2.80190       -2.30920       -1.84370
Br         0.51410       -1.31150       -3.76430
F          0.01770       -4.07300       -3.19270
F         -1.95900       -3.02110       -2.84940
F         -1.63340       -5.11030       -2.10170
