22
TSA8_9_CH2F_CHF2_NO2
C          2.55110        1.38090       -0.60970
C          1.39280        0.69000       -1.30600
C          2.58510        0.91390        0.86480
H          3.48630        1.03550       -1.10420
C          1.65320       -0.25820       -2.44310
C          2.45630        2.93310       -0.81170
C          1.30350        3.53190       -0.03190
C          0.27240        4.13240       -0.63420
O          0.24390        0.89440       -0.93990
N          3.68140        3.64450       -0.46740
H          2.29750        3.10440       -1.90140
H          1.31530        3.48360        1.05270
H          0.21850        4.20930       -1.71540
H         -0.53100        4.55340       -0.03840
F          3.65310        1.44460        1.56020
H          2.67650       -0.19330        0.89620
H          1.64750        1.18610        1.39280
F          0.46760       -0.78580       -2.92400
F          2.29800        0.40960       -3.46780
H          2.29710       -1.09020       -2.08790
O          4.66330        3.06620       -0.11220
O          3.74370        4.94530       -0.65960
