22
TSA8_9_CH2F_CHF2_NO2
C          2.56670        1.55950       -0.59360
C          1.26150        1.04320       -1.29380
C          2.43200        1.26670        0.91980
H          3.44860        0.98660       -0.95870
C          1.55310        0.02730       -2.39780
C          2.74400        3.05980       -0.97060
C          1.49960        3.85880       -0.54680
C          0.21550        3.05050       -0.80770
O          0.43910        2.08700       -1.81520
N          3.96470        3.70080       -0.50570
H          2.77380        3.09530       -2.08310
H          1.51080        4.18340        0.51620
H         -0.59660        3.74330       -1.10950
H         -0.14940        2.55160        0.11870
F          3.57270        1.58840        1.62620
H          2.25650        0.17840        1.06020
H          1.57750        1.80490        1.37350
F          0.36320       -0.46180       -2.90420
F          2.27410        0.61990       -3.41920
H          2.13520       -0.82210       -1.98210
O          4.81420        3.08560        0.06390
O          4.19800        4.95280       -0.83620
