23
TSA8_9_CF3_CHF2_CHF2
C          2.90590       -2.05620       -0.99050
C          1.39380       -2.37280       -0.81150
C          3.26380       -0.57160       -0.71600
H          3.44290       -2.68590       -0.24920
C          0.80070       -2.15720        0.58040
C          3.33860       -2.47640       -2.44140
C          2.17850       -3.16020       -3.18680
C          0.94070       -2.23350       -3.11140
O          0.61590       -1.74590       -1.80940
C          4.57990       -3.38630       -2.44140
H          3.58020       -1.56800       -3.03950
H          1.93560       -4.13130       -2.70170
H          0.06460       -2.76120       -3.54330
H          1.15490       -1.34810       -3.74700
F          4.61680       -0.36710       -0.92040
F          2.55710        0.26370       -1.56320
F          2.97880       -0.22960        0.59110
F         -0.48160       -2.67180        0.61190
F          1.56470       -2.81480        1.52930
H          0.75090       -1.07880        0.82780
F          5.65170       -2.74590       -1.84770
F          4.32220       -4.56210       -1.75670
H          4.85880       -3.64140       -3.48570
