20
TSA8_9_H_Me_CH2F
C          2.80610       -1.55790        2.04350
C          1.53230       -0.95250        1.50490
H          3.67760       -1.00410        1.63020
H          2.81500       -1.43070        3.14870
C          0.52380       -0.35840        2.44190
C          2.93040       -3.06350        1.72640
C          3.02400       -3.29900        0.23490
C          2.12570       -4.03680       -0.42450
O          1.32250       -0.92960        0.30130
C          4.17880       -3.64210        2.40480
H          2.04210       -3.58450        2.15100
H          3.84790       -2.85610       -0.31820
H          1.28850       -4.49690        0.09120
H          2.22670       -4.18400       -1.49460
H          0.16570       -1.13850        3.14620
H         -0.34620        0.04420        1.88070
H          0.99150        0.46740        3.01770
F          4.26820       -5.00180        2.16180
H          4.12110       -3.48690        3.50340
H          5.09800       -3.14500        2.02530
