21
TSA8_9_Me_CCl3_OH
C          2.50780       -1.23260        0.79450
C          1.39820       -0.50840        1.54060
C          2.35710       -0.99970       -0.71680
H          3.46820       -0.76530        1.10680
C          1.72980        0.58520        2.53660
C          2.65140       -2.74650        1.13800
C          1.53030       -3.64340        0.64780
C          0.30600       -3.66780        1.17990
O          0.23000       -0.77320        1.30330
O          3.85070       -3.19600        0.55530
H          2.74350       -2.84490        2.24610
H          1.74450       -4.34230       -0.15700
H          0.03460       -3.03940        2.01800
H         -0.43720       -4.35340        0.78530
H          1.41120       -1.44620       -1.09160
H          3.20760       -1.45180       -1.26880
H          2.34440        0.08950       -0.93530
Cl         2.74020       -0.07110        3.85010
Cl         2.61710        1.90100        1.72410
Cl         0.25950        1.28720        3.27100
H          4.15640       -3.97980        1.08350
