17
TSA8_9_CN_NH2_I
C          2.73520        0.01030       -1.44260
C          1.85520       -1.22440       -1.60410
C          2.10870        0.95690       -0.47820
H          3.68920       -0.32400       -0.98600
N          1.94950       -2.25180       -0.73290
C          2.98970        0.70130       -2.84310
C          2.01620        1.82760       -3.00440
C          0.75710        1.58900       -3.34400
O          1.11940       -1.34980       -2.57160
I          4.94330        1.48930       -3.27780
H          2.91190       -0.03440       -3.67830
H          2.28940        2.80370       -2.60730
H          0.45020        0.60500       -3.66600
H          0.02640        2.37530       -3.25000
N          1.68050        1.73090        0.26120
H          1.41220       -3.11680       -0.89720
H          2.57970       -2.20190        0.07710
