21
TSA8_9_CF3_Me_OH
C          2.06390        0.05170        0.22020
C          1.66660        1.30980        0.58640
C          1.85090       -1.33590        0.79070
H          2.65860       -0.01240       -0.68760
C          2.07940        2.45690       -0.30190
C          1.97380        1.42250        4.87720
C          1.77750        0.82840        3.68820
C          0.55550        1.11780        2.85410
O          0.92230        1.70630        1.66440
O          3.07900        1.17250        5.61280
H          1.24240        2.12440        5.26690
H          2.52190        0.13380        3.31350
H         -0.09480        1.84280        3.38820
H         -0.09280        0.24240        2.69170
F          3.08790       -1.89300        1.05380
F          1.10280       -1.41410        1.93280
F          1.22420       -2.10410       -0.17330
H          2.68470        3.17320        0.29290
H          1.17250        2.97660       -0.67460
H          2.68390        2.14320       -1.17900
H          3.77440        0.56730        5.31650
