17
TSA8_9_Br_H_CCl3
C          2.12980        0.06320        0.42860
C          1.40540       -0.77410        1.17060
Br         3.26690       -0.60320       -0.95600
H          2.07910        1.13390        0.60050
H          1.46230       -1.84340        0.98440
C          0.58020       -1.94770        5.14880
C          0.63970       -1.99300        3.80750
C         -0.19680       -1.08440        2.94320
O          0.59850       -0.28730        2.14410
C          1.41130       -2.86050        6.01320
H         -0.08610       -1.23610        5.62940
H          1.30130       -2.70500        3.32230
H         -0.83000       -0.42220        3.57180
H         -0.87340       -1.69630        2.30840
Cl         1.07850       -2.53580        7.73350
Cl         1.01570       -4.56680        5.67720
Cl         3.14830       -2.58940        5.71490
