18
TSA8_9_CHF2_CN_F
C          1.69420       -0.03580        0.07030
C          1.45930       -1.23990        0.64960
C          1.78850        0.18070       -1.42360
H          1.78890        0.84050        0.70080
C          1.34490       -1.32930        2.08420
C         -0.35720       -5.28970       -0.87110
C          0.01590       -4.03860       -1.13420
C          0.11210       -3.02030       -0.05260
O          1.29850       -2.33100       -0.11940
F         -0.49810       -6.17810       -1.88640
H         -0.58290       -5.59900        0.14520
H          0.19990       -3.73210       -2.16010
H         -0.05090       -3.44060        0.96460
H         -0.69770       -2.30380       -0.26810
F          3.10730        0.40610       -1.75960
F          1.30500       -0.88620       -2.16190
H          1.18140        1.06850       -1.69810
N          1.15060       -1.42670        3.22550
