20
TSA8_9_CN_NH2_CCl3
C          1.63130       -0.02480        0.06650
C          1.54670       -1.12940        0.86430
C          1.81050        0.02570       -1.35970
H          1.55220        0.94190        0.52610
N          1.71790       -0.90220        2.23920
C          3.35880       -4.44230       -1.41960
C          2.89510       -3.19980       -1.19170
C          1.45600       -2.98030       -0.78470
O          1.41230       -2.43680        0.47740
C          4.76740       -4.74470       -1.87960
H          2.68950       -5.28480       -1.28300
H          3.56810       -2.35060       -1.32140
H          0.91010       -3.95400       -0.78460
H          0.92490       -2.33700       -1.50660
N          1.95560        0.03500       -2.50730
H          1.97090       -1.70130        2.82800
H          2.11030        0.00240        2.52500
Cl         4.96760       -6.50890       -2.09390
Cl         5.11060       -3.96870       -3.44970
Cl         5.96560       -4.20000       -0.68210
