20
TSA8_9_CN_NH2_CCl3
C          2.99900       -1.55420       -0.21670
C          1.63040       -1.57240        0.53700
C          2.73880       -0.57530       -1.29640
H          3.80900       -1.14240        0.42810
N          1.73020       -1.20820        1.94950
C          3.28430       -3.04420       -0.67100
C          2.15020       -3.42700       -1.61440
C          0.79390       -3.13440       -0.97850
O          0.91090       -2.79280        0.39390
C          4.61460       -3.63490       -1.24510
H          3.18530       -3.63590        0.26620
H          2.25410       -2.88830       -2.58760
H          0.23260       -4.08490       -1.06420
H          0.23790       -2.35530       -1.54330
N          2.49470        0.15920       -2.15990
H          2.30180       -1.90530        2.47830
H          2.15080       -0.25510        2.04070
Cl         4.37940       -5.41100       -1.46160
Cl         5.10930       -2.98630       -2.82900
Cl         5.97180       -3.48330       -0.10180
