18
TSA8_9_F_CBr3_CN
C          2.59770        1.73430        0.87470
C          1.26550        1.67840        0.06100
F          2.72660        0.54140        1.57340
H          3.49170        1.81820        0.23390
C          1.30180        2.03120       -1.45520
C          2.50590        2.90190        1.85240
C          1.35350        2.62230        2.81770
C          0.10800        2.11690        2.06880
O          0.17410        2.36870        0.68010
C          3.74230        3.16980        2.60020
H          2.28320        3.81800        1.26660
H          1.62600        1.84370        3.57160
H         -0.75720        2.66550        2.49700
H         -0.07280        1.03390        2.23920
Br         0.15680        0.75430       -2.34850
Br         0.59620        3.80720       -1.83040
Br         3.03360        1.91180       -2.33800
N          4.69430        3.41690        3.21050
