20
TSA8_9_Me_Br_CF3
C          1.51140       -0.83720        2.22850
C          1.19310        0.43410        1.47250
C          1.48780       -2.02670        1.25310
H          2.55400       -0.74100        2.60370
Br         2.49620        1.82880        1.34980
C          0.57760       -0.98930        3.47330
C         -0.88400       -1.11380        3.08780
C         -1.79150       -0.20100        3.44990
O          0.11350        0.58330        0.92040
C          0.96360       -2.16600        4.39590
H          0.72260       -0.06530        4.07990
H         -1.21050       -1.96920        2.50420
H         -1.51230        0.66970        4.03490
H         -2.82930       -0.32360        3.15770
H          1.83290       -2.95720        1.74320
H          2.18590       -1.83230        0.41050
H          0.47320       -2.18620        0.83260
F          0.75020       -3.38770        3.78340
F          2.29410       -2.06830        4.76240
F          0.19230       -2.12090        5.54440
