20
TSA8_9_Me_Br_CF3
C          1.40330       -0.89140        2.40920
C          0.94070        0.39630        1.69980
C          1.38530       -2.04700        1.39340
H          2.46130       -0.76480        2.72700
Br         1.44360        2.04900        2.61070
C          0.50660       -1.10820        3.66150
C         -0.97260       -1.06780        3.25400
C         -1.25180        0.23400        2.49350
O         -0.43340        0.35470        1.34010
C          0.82610       -2.37530        4.47790
H          0.68570       -0.24550        4.34170
H         -1.23290       -1.93700        2.61390
H         -1.13610        1.11490        3.16180
H         -2.31420        0.22680        2.17320
H          1.79800       -2.97350        1.83900
H          2.03590       -1.79060        0.53000
H          0.36530       -2.24630        1.00620
F          0.53610       -3.52680        3.76850
F          2.16330       -2.38350        4.83260
F          0.06540       -2.37880        5.63400
