23
TSA8_9_CHF2_Me_Me
C          2.01210       -0.19550       -2.12570
C          0.64540       -0.84500       -2.22650
C          1.99710        0.80930       -0.95140
H          2.75660       -0.98700       -1.88070
C          0.49520       -2.32120       -2.01120
C          2.41850        0.46210       -3.48080
C          3.81340        1.04200       -3.40360
C          4.05420        2.34290       -3.59410
O         -0.34060       -0.17010       -2.48670
C          2.39660       -0.55460       -4.63380
H          1.68420        1.26350       -3.72430
H          4.64770        0.37990       -3.18750
H          3.24960        3.03820       -3.81200
H          5.06960        2.72000       -3.53050
F          3.25790        1.32550       -0.71430
F          1.12090        1.85200       -1.20180
H          1.67360        0.28790       -0.02480
H          1.10860       -2.87080       -2.75550
H         -0.56610       -2.62960       -2.12350
H          0.83850       -2.58440       -0.98890
H          1.37910       -0.97490       -4.77490
H          3.10360       -1.38910       -4.43590
H          2.68620       -0.05750       -5.58460
