24
TSA8_9_CCl3_Me_OMe
C          1.42120       -0.66240        0.06970
C          2.01200       -0.81430        1.28600
C          2.12830       -0.50940       -1.26280
H          0.34100       -0.62510        0.02470
C          3.50260       -0.85830        1.49170
C         -0.08560       -3.89070        3.34680
C          0.18800       -3.01830        2.35640
C          0.03000       -1.53330        2.55670
O          1.26880       -0.93200        2.42460
O          0.07550       -5.24140        3.25940
H         -0.45970       -3.50650        4.29080
H          0.54930       -3.34480        1.39040
H         -0.34480       -1.31950        3.57990
H         -0.71370       -1.11270        1.85090
Cl         3.07430       -1.97060       -1.65460
Cl         0.91860       -0.29450       -2.55580
Cl         3.17720        0.93550       -1.28250
H          3.76490       -1.82830        1.96520
H          3.80570       -0.03680        2.17230
H          4.09770       -0.77500        0.56510
C          0.72680       -5.97270        2.28230
H          1.52310       -6.57740        2.76410
H          1.21200       -5.35170        1.50740
H          0.00510       -6.66120        1.79840
