20
TSA8_9_Me_CF3_I
C          2.88030       -1.04290       -0.43420
C          1.44150       -1.46320       -0.04040
C          2.80250        0.25680       -1.25730
H          3.47290       -0.75150        0.45900
C          1.30460       -2.32510        1.22320
C          3.61220       -2.16940       -1.20920
C          2.64450       -3.16700       -1.86050
C          1.32440       -2.49100       -2.22810
O          0.62280       -1.93710       -1.11350
I          4.97910       -3.25590        0.04320
H          4.26300       -1.71240       -1.98510
H          2.38990       -3.98820       -1.16260
H          0.67700       -3.26780       -2.68590
H          1.48570       -1.72050       -3.00680
H          2.23550        0.14640       -2.19930
H          3.82650        0.60750       -1.50900
H          2.31220        1.05230       -0.65490
F         -0.03710       -2.48040        1.51860
F          1.86930       -3.57300        1.07000
F          1.91400       -1.68590        2.28700
