19
TSA8_9_CHF2_NO2_F
C          2.02000        0.27200        0.04180
C          1.67790        0.77060       -1.19170
C          1.66050        0.61440        1.47390
H          2.69780       -0.57510        0.04270
N          2.22310        0.12370       -2.34950
C          1.45120        5.03970       -0.47590
C          1.36350        3.74570       -0.14970
C          0.29380        2.85160       -0.72670
O          0.85630        1.83360       -1.46520
F          2.43070        5.81130        0.06280
H          0.74860        5.49210       -1.16930
H          2.08880        3.33730        0.54510
H         -0.34540        3.44140       -1.41800
H         -0.41040        2.45760        0.02340
F          2.81800        0.93310        2.15880
F          0.75200        1.61750        1.66950
H          1.22750       -0.29820        1.93470
O          1.94550        0.53050       -3.43740
O          3.02680       -0.91500       -2.24700
