22
TSA8_9_CH2F_Me_NO2
C          2.69320       -1.47460        0.58080
C          1.46430       -0.92250        1.27810
C          2.74910       -0.88820       -0.84970
H          3.58200       -1.10820        1.14150
C          1.61280       -0.05830        2.49480
C          2.70060       -3.04070        0.65690
C          1.62060       -3.65100       -0.21330
C          0.61450       -4.36660        0.29860
O          0.34570       -1.17180        0.85210
N          3.98340       -3.63880        0.30840
H          2.51600       -3.30970        1.72250
H          1.66640       -3.51420       -1.28930
H          0.52910       -4.53430        1.36750
H         -0.13640       -4.79140       -0.35970
F          3.87740       -1.28660       -1.53830
H          2.76260        0.22150       -0.79040
H          1.85360       -1.17980       -1.43730
H          2.13800       -0.62470        3.29210
H          0.61900        0.25960        2.87630
H          2.20350        0.84600        2.23850
O          4.93490       -2.96890        0.04000
O          4.13020       -4.94350        0.40030
