22
TSA8_9_CH2F_Me_NO2
C          1.88860       -0.06910        0.11460
C          1.50660       -0.66940        1.27940
C          1.95940       -0.60740       -1.28950
H          2.18480        0.97560        0.16780
C          1.51140        0.16000        2.53610
C          3.06570       -4.66710        0.80130
C          2.57120       -3.48570        0.38900
C          1.14160       -3.08530        0.66180
O          1.09870       -1.96290        1.46200
N          4.41540       -5.05060        0.55930
H          2.42280       -5.35730        1.34110
H          3.21410       -2.79580       -0.14450
H          0.62540       -3.90090        1.21210
H          0.54690       -2.94210       -0.25860
F          3.25650       -0.48730       -1.75180
H          1.29800        0.01100       -1.93120
H          1.64750       -1.64410       -1.42970
H          2.19540       -0.30500        3.27690
H          0.48610        0.18570        2.96100
H          1.84340        1.20710        2.36890
O          5.16720       -4.32990       -0.02580
O          4.84410       -6.21550        0.99350
