18
TSA8_9_OMe_I_I
C          0.48710       -1.48250       -0.23740
C          1.13880       -0.74400        0.95960
O          1.44470       -1.76360       -1.24150
H         -0.34280       -0.83870       -0.61600
I          0.06820        0.99610        1.64260
C         -0.14010       -2.81050        0.22320
C         -0.78130       -2.58850        1.58320
C          0.35740       -2.27450        2.58190
O          1.49030       -1.60560        2.02430
I         -1.54930       -3.53820       -1.21350
H          0.64690       -3.58910        0.34840
H         -1.49370       -1.73840        1.49920
H          0.72950       -3.26020        2.93130
H         -0.03410       -1.73680        3.47110
C          1.61440       -0.64320       -2.08250
H          2.40710       -0.87810       -2.82190
H          1.95600        0.24760       -1.51010
H          0.68560       -0.42770       -2.65550
