20
TSA8_9_CCl3_CF3_I
C          0.98860       -1.12510        0.49120
C          1.83740       -2.22050       -0.28750
C          1.62480        0.27970        0.74160
H          0.15180       -0.88660       -0.20370
C          3.36990       -2.28350       -0.12140
C          0.26470       -1.78130        1.70290
C         -0.60380       -2.95620        1.20080
C         -0.07380       -3.55310       -0.10990
O          1.33450       -3.54600       -0.10480
I          1.54340       -2.47880        3.29630
H         -0.42660       -1.07060        2.19930
H         -0.72570       -3.70920        2.00800
H         -0.45640       -2.97780       -0.98400
H         -0.45810       -4.58580       -0.24040
Cl         2.12570        1.01710       -0.80680
Cl         0.40830        1.39340        1.42890
Cl         3.01540        0.28750        1.86110
F          3.72920       -2.58820        1.17420
F          3.85860       -3.28030       -0.94660
F          3.97620       -1.10580       -0.50270
