22
TSA8_9_Me_NH2_CH2F
C          1.48090        0.03960        0.05240
C          1.98480       -1.18150        0.35630
C          2.10830        1.35950        0.40120
H          0.56910        0.08670       -0.53390
N          1.30610       -2.33540       -0.11500
C          5.25480       -1.81460        3.64860
C          3.99780       -1.76540        3.18470
C          3.55540       -0.72740        2.19530
O          3.14130       -1.37370        1.04830
C          5.67770       -2.87140        4.62300
H          5.99150       -1.08880        3.31520
H          3.26950       -2.49950        3.52030
H          4.38930       -0.03800        1.94220
H          2.72830       -0.16070        2.66680
H          3.13640        1.41190       -0.01250
H          2.12510        1.53580        1.49200
H          1.50580        2.17760       -0.04730
H          1.68250       -3.27160        0.09310
H          0.43320       -2.26240       -0.65810
F          4.93650       -2.76860        5.78550
H          6.75320       -2.74570        4.86670
H          5.52770       -3.87740        4.17610
