22
TSA8_9_Me_NH2_CH2F
C          3.24890       -0.48680        1.49550
C          2.56340       -1.82880        1.10050
C          4.15930        0.02100        0.37090
H          2.47000        0.29290        1.65790
N          1.59600       -1.64930        0.02390
C          3.96960       -0.69210        2.85060
C          2.91450       -1.12920        3.90250
C          1.65590       -1.74600        3.26390
O          2.00210       -2.58240        2.17980
C          5.11910       -1.72280        2.76140
H          4.42160        0.26410        3.19260
H          3.37030       -1.78670        4.67430
H          0.96740       -0.94340        2.91560
H          1.08800       -2.31650        4.02810
H          4.93990       -0.72300        0.11170
H          4.64530        0.97190        0.67560
H          3.55900        0.21450       -0.54320
H          1.27270       -2.59170       -0.29000
H          0.76990       -1.11990        0.38570
F          5.74520       -1.84860        3.98940
H          5.88780       -1.38710        2.03670
H          4.74650       -2.72020        2.44810
