24
TSA8_9_OMe_Et_Cl
C          1.76620        0.40000        1.39320
C          1.80930        1.71300        0.62240
O          0.97550       -0.55580        0.69840
H          2.83980        0.10240        1.48540
C          1.21660        1.88220       -0.76290
C          1.23780        0.55850        2.84570
C         -0.24040        0.85220        2.94080
C         -0.78280        1.99770        2.52580
O          2.41500        2.65560        1.11040
Cl         1.56880       -0.94510        3.75700
H          1.80720        1.35710        3.37090
H         -0.89770        0.11170        3.39000
H         -0.17650        2.78700        2.10080
H         -1.85130        2.15710        2.62910
C          1.68800       -1.74690        0.44510
H          1.79060       -2.34950        1.37090
H          2.67440       -1.55380       -0.03160
H          1.10360       -2.35100       -0.27850
C          0.16110        2.98270       -0.81140
H          0.75810        0.94540       -1.13660
H          2.04140        2.15160       -1.45860
H         -0.70920        2.71490       -0.17950
H         -0.19850        3.10340       -1.85560
H          0.58640        3.95110       -0.47150
