24
TSA8_9_OMe_Et_Cl
C          1.33740        0.07290       -0.01520
C          1.30960        1.39670        0.22000
O          1.26060       -0.81100        1.00750
H          1.43770       -0.29680       -1.03340
C          1.42810        2.38240       -0.91400
C          1.28860        1.12360        4.34540
C          0.35940        0.80710        3.43960
C          0.05960        1.69130        2.26610
O          1.18630        1.87740        1.48510
Cl         1.59280        0.05300        5.70340
H          1.86460        2.03920        4.25510
H         -0.20550       -0.11380        3.54990
H         -0.29330        2.68220        2.62160
H         -0.76260        1.23290        1.67390
C          1.32070       -2.17110        0.81250
H          1.25010       -2.68350        1.79350
H          2.28550       -2.44650        0.33400
H          0.47740       -2.50310        0.16960
C          0.18090        3.25930       -0.98490
H          1.54750        1.86220       -1.88980
H          2.32150        3.02100       -0.74930
H         -0.71970        2.63100       -1.15640
H          0.27750        3.98150       -1.82240
H          0.05070        3.82880       -0.03970
