24
TSA8_9_OMe_Et_Cl
C          1.42020        0.30670        1.41370
C          0.66790        1.47770        0.72060
O          0.67430       -0.87840        1.18280
H          2.47810        0.25510        1.05140
C          1.36860        1.99630       -0.53890
C          1.50210        0.58510        2.92540
C          0.12950        0.97370        3.48730
C         -0.56420        1.99490        2.56150
O          0.35130        2.52680        1.62140
Cl         2.21530       -0.77090        3.83960
H          2.16730        1.46660        3.06580
H         -0.54330        0.10120        3.63440
H         -0.99230        2.81130        3.17850
H         -1.42990        1.52480        2.03550
C          1.46570       -1.85870        0.55000
H          2.28450       -2.19960        1.21970
H          1.85920       -1.49370       -0.42450
H          0.82580       -2.73860        0.33490
C          0.51270        3.03290       -1.26150
H          1.55260        1.14590       -1.22960
H          2.34410        2.45180       -0.26230
H         -0.46080        2.58740       -1.55800
H          1.04030        3.37920       -2.17510
H          0.32780        3.91230       -0.60860
