27
TSA8_9_CCl3_OMe_Et
C          3.22260        0.06890       -1.83350
C          2.22540       -1.01950       -2.18720
C          2.71690        0.94460       -0.64240
H          4.12870       -0.43720       -1.44160
O          2.57850       -2.31740       -1.99840
C          3.68520        0.87760       -3.09920
C          2.57110        1.70370       -3.70960
C          2.63230        3.03770       -3.77850
O          1.12400       -0.73580       -2.63710
C          4.26720       -0.02480       -4.21800
H          4.50350        1.56020       -2.78040
H          1.69540        1.20740       -4.11510
H          1.81540        3.59380       -4.22630
H          3.48650        3.58350       -3.39080
Cl         1.18640        1.81220       -0.96320
Cl         2.43960       -0.09030        0.78800
Cl         3.94760        2.14940       -0.17000
C          1.79590       -3.38760       -2.37290
H          2.30050       -4.32930       -2.07380
H          1.66030       -3.38890       -3.47570
H          0.80510       -3.33640       -1.87180
C          5.49100       -0.83660       -3.78920
H          4.58390        0.62630       -5.06310
H          3.48920       -0.72170       -4.59970
H          6.29190       -0.16150       -3.41990
H          5.87840       -1.40300       -4.66230
H          5.23320       -1.57370       -3.00260
