20
TSA8_9_Cl_CBr3_CCl3
C          2.22380        1.79480       -1.65310
C          0.99170        1.44330       -2.46020
Cl         1.90400        1.22150        0.01660
H          3.09460        1.21750       -2.03100
C          1.00850        0.33900       -3.50390
C          2.57010        3.32110       -1.62010
C          3.75420        3.51680       -0.68650
C          3.66480        4.23800        0.43580
O         -0.05770        2.01840       -2.20710
C          2.90190        3.98140       -2.99520
H          1.68670        3.85760       -1.20510
H          4.70600        3.05510       -0.93350
H          2.73440        4.71660        0.72460
H          4.53330        4.35220        1.07600
Br         1.47220       -1.34330       -2.65980
Br        -0.73270        0.11090       -4.34030
Br         2.28730        0.67060       -4.91900
Cl         3.29880        5.70990       -2.76180
Cl         4.30660        3.21430       -3.79140
Cl         1.51880        3.96670       -4.12320
