20
TSA8_9_Cl_CBr3_CCl3
C          3.02710        1.82020       -2.12580
C          1.67870        1.31290       -1.51170
Cl         4.34410        1.30240       -1.03120
H          3.21820        1.32790       -3.10120
C          0.83820        0.43430       -2.45710
C          2.95530        3.36020       -2.31220
C          2.61530        4.03870       -0.96610
C          1.67050        3.16350       -0.12860
O          0.87640        2.36600       -0.97870
C          4.15190        4.03520       -3.03920
H          2.07450        3.52560       -2.97120
H          3.49990        4.28220       -0.33960
H          1.03190        3.80900        0.50850
H          2.24700        2.51730        0.57520
Br         1.82750       -1.14680       -2.99730
Br        -0.75120       -0.17990       -1.53110
Br         0.28020        1.40780       -4.04210
Cl         3.78560        5.75950       -3.32520
Cl         5.68480        3.96200       -2.12480
Cl         4.42000        3.28720       -4.63800
