20
TSA8_9_H_CF3_CBr3
C          2.03380        0.25590       -0.11490
C          1.57720        1.52540       -0.15340
H          2.39300       -0.20780        0.79430
H          2.04530       -0.36800       -1.00210
C          1.05460        2.12210       -1.43820
C          2.70150        4.17980        3.54930
C          2.94790        3.46350        2.43980
C          2.22450        2.18240        2.14470
O          1.54360        2.32930        0.94840
C          3.42060        5.47140        3.83770
H          1.96250        3.82270        4.26110
H          3.68760        3.81080        1.72330
H          1.49280        1.94440        2.94610
H          2.98200        1.37600        2.10800
F         -0.25890        2.51250       -1.25760
F          1.81090        3.23420       -1.75710
F          1.11000        1.23090       -2.49690
Br         2.81250        6.20270        5.52720
Br         5.33490        5.18160        3.95590
Br         3.05500        6.77460        2.44750
