20
TSA8_9_CH2F_CHF2_Br
C          2.63530       -1.22440       -1.05720
C          1.36820       -1.94970       -0.64350
C          2.34300        0.27970       -1.17480
H          3.38620       -1.32500       -0.24190
C          1.27690       -2.62340        0.69860
C          3.28260       -1.84820       -2.33250
C          2.41010       -1.87080       -3.57120
C          2.06690       -0.77140       -4.24910
O          0.40180       -1.96540       -1.39290
Br         3.83000       -3.67720       -1.94270
H          4.22340       -1.30850       -2.57550
H          2.06940       -2.82770       -3.95620
H          1.45170       -0.85750       -5.13890
H          2.40390        0.21320       -3.95000
F          3.49250        0.97080       -1.51510
H          1.98350        0.66260       -0.19540
H          1.54710        0.48950       -1.91580
F          0.02820       -3.19340        0.87540
F          2.23900       -3.60960        0.80240
H          1.44170       -1.87070        1.49770
