16
TSA8_9_I_I_NH2
C          2.88890       -0.72610        1.63910
C          1.41900       -0.61000        1.33090
I          4.02100        0.03770       -0.02730
H          3.10480       -0.06130        2.50240
I          0.18560        0.63110        2.51360
C          3.27900       -2.16680        2.04920
C          3.10810       -3.15690        0.91360
C          2.25730       -4.18500        0.98940
O          0.92420       -1.21990        0.39600
N          4.66100       -2.19890        2.53040
H          2.62280       -2.45060        2.90340
H          3.69520       -3.03360        0.00890
H          1.64860       -4.34860        1.87290
H          2.16520       -4.87310        0.15520
H          5.32960       -1.99070        1.75480
H          4.87720       -3.15150        2.90470
