23
TSA8_9_Me_CBr3_CCl3
C          2.68140       -0.17390       -1.80750
C          1.40900       -0.87890       -2.26840
C          2.33270        0.73090       -0.61070
H          3.38350       -0.93960       -1.41390
C          1.18600       -2.36750       -2.03810
C          3.43470        0.66910       -2.90340
C          2.56830        1.80120       -3.43560
C          2.87150        3.08620       -3.22480
O          0.50850       -0.21480       -2.76050
C          4.03730       -0.14050       -4.08730
H          4.31280        1.11320       -2.37980
H          1.67740        1.57380       -4.01100
H          2.23010        3.86570       -3.62290
H          3.75180        3.37180       -2.65780
H          1.61700        1.52880       -0.90150
H          3.25180        1.20680       -0.20700
H          1.87370        0.13600        0.20630
Br        -0.55740       -2.94050       -2.68560
Br         2.50790       -3.47500       -2.91510
Br         1.24930       -2.76110       -0.14120
Cl         5.00760        0.94120       -5.12940
Cl         5.16080       -1.39650       -3.49880
Cl         2.79860       -0.89490       -5.13150
