18
TSA8_9_Cl_CN_CF3
C          2.86400        1.56900        1.31210
C          1.86230        2.07400        0.29160
Cl         2.99570       -0.21880        1.19140
H          3.83960        1.99890        1.00170
C          2.04940        1.77920       -1.10880
C          2.54940        2.02260        2.77240
C          1.41650        1.21190        3.38010
C          0.13560        1.58500        3.32220
O          0.95780        2.82950        0.60970
C          3.79330        1.94180        3.68210
H          2.27750        3.10230        2.76010
H          1.65320        0.27610        3.88080
H         -0.16810        2.49910        2.82760
H         -0.62730        0.95560        3.77020
N          2.19740        1.54340       -2.22990
F          4.27430        0.64690        3.76330
F          4.79320        2.75870        3.18220
F          3.47390        2.38040        4.95560
