18
TSA8_9_Cl_CN_CF3
C          1.68300        0.03690       -0.01410
C          1.52950        1.38760       -0.05840
Cl         1.76070       -1.01970        1.39170
H          1.65770       -0.50040       -0.95700
C          1.47660        2.00300       -1.35060
C          2.64450        2.63580        4.07910
C          2.35000        1.79930        3.07180
C          1.07070        1.93810        2.30950
O          1.35820        2.23640        0.99680
C          3.89210        2.52890        4.90670
H          1.95370        3.43560        4.33120
H          3.03440        1.00970        2.78680
H          0.47020        2.76480        2.76120
H          0.43360        1.03180        2.37180
N          1.43060        2.52370       -2.38060
F          4.67630        1.45240        4.53020
F          4.62800        3.69080        4.77720
F          3.52670        2.37330        6.23020
