18
TSA8_9_Cl_CN_CF3
C          2.84510        1.33910        1.43650
C          1.51560        1.58560        0.65830
Cl         2.90380       -0.43110        1.72160
H          3.73240        1.60330        0.82420
C          1.67540        1.93670       -0.75960
C          2.77890        2.15380        2.77160
C          1.47680        1.77740        3.48370
C          0.27710        1.97330        2.54220
O          0.66580        2.52050        1.29490
C          3.98540        2.16900        3.75660
H          2.66260        3.22140        2.48140
H          1.51400        0.73460        3.87320
H         -0.40310        2.68700        3.05320
H         -0.28030        1.02350        2.39680
N          1.75970        2.21390       -1.88030
F          4.81590        1.07580        3.61130
F          4.73090        3.32200        3.55830
F          3.53680        2.20880        5.07010
