22
TSA8_9_OH_CN_Et
C          2.26610        0.73040       -1.36690
C          1.18190       -0.39650       -1.30060
O          1.94660        1.63820       -0.33420
H          3.26590        0.25990       -1.22360
C          1.56560       -1.39630       -0.28850
C          2.26670        1.50870       -2.72550
C          1.84440        0.60770       -3.89370
C          0.61950       -0.18690       -3.50280
O          1.01270       -1.09610       -2.50850
C          3.62600        2.13960       -3.15870
H          1.48860        2.30010       -2.64120
H          2.64530       -0.12960       -4.13770
H          0.26620       -0.75820       -4.38390
H         -0.22110        0.47280       -3.17850
H          2.75840        1.85910        0.18090
N          1.90660       -2.19510        0.47710
C          4.44060        2.89790       -2.11750
H          3.41290        2.82260       -4.01120
H          4.30800        1.34350       -3.53470
H          3.85790        3.70720       -1.64010
H          5.32200        3.34550       -2.63340
H          4.83490        2.19440       -1.35360
