18
TSA8_9_OH_Cl_CF3
C          1.75360        0.13330        0.15000
C          1.37100        0.55820        1.37110
O          2.16360       -1.12800       -0.08840
H          1.72030        0.83030       -0.68280
Cl         0.82680        2.22140        1.52620
C          4.17540       -1.63700        3.78330
C          3.43070       -1.34540        2.70340
C          1.92520       -1.44520        2.72910
O          1.35620       -0.20480        2.50360
C          5.67740       -1.53720        3.79730
H          3.69000       -1.95780        4.70090
H          3.91040       -1.02230        1.78610
H          1.58600       -1.79490        3.72750
H          1.55880       -2.18930        1.99260
H          2.42290       -1.40240       -0.97860
F          6.18240       -1.11660        2.57850
F          6.05920       -0.63510        4.77240
F          6.21000       -2.77640        4.09740
