21
TSA8_9_I_OMe_CHF2
C          3.38530       -1.02690        1.14140
C          1.91970       -0.69050        1.51180
I          3.45240       -1.21590       -0.99760
H          4.06260       -0.19010        1.41620
O          1.67590        0.67230        1.79950
C          3.80930       -2.29240        1.92240
C          2.77440       -3.41980        1.75130
C          1.33390       -2.87030        1.80440
O          1.30250       -1.59540        2.41740
C          5.24200       -2.77740        1.64990
H          3.77410       -2.00460        2.99790
H          2.89700       -4.01050        0.81750
H          0.69160       -3.58180        2.36280
H          0.89970       -2.81160        0.77710
C          2.01420        0.95590        3.13970
H          2.07240        2.05730        3.25940
H          3.01240        0.55480        3.42500
H          1.22470        0.58370        3.82770
F          5.39300       -3.22050        0.34900
F          6.14520       -1.75790        1.89260
H          5.47740       -3.62280        2.33120
