24
TSA8_9_CH2F_Et_OH
C          2.70170       -1.92580        0.67270
C          1.13500       -2.00360        0.70320
C          3.16290       -0.90850       -0.38850
H          3.08780       -1.54410        1.64490
C          0.60030       -1.82160        2.13110
C          3.25780       -3.34370        0.44100
C          2.68580       -3.95190       -0.85120
C          1.22810       -3.51010       -1.06700
O          0.61690       -3.22530        0.17100
O          4.66040       -3.35600        0.42650
H          2.88960       -3.95250        1.30110
H          3.26590       -3.68890       -1.76220
H          0.67660       -4.31450       -1.59490
H          1.16140       -2.62020       -1.73250
F          4.53980       -0.77510       -0.36730
H          2.71870        0.08420       -0.16190
H          2.85320       -1.19420       -1.41200
C         -0.92470       -1.77130        2.15700
H          0.98380       -0.86470        2.54690
H          0.95350       -2.65780        2.77340
H         -1.29050       -0.92660        1.53520
H         -1.27260       -1.62310        3.20110
H         -1.35650       -2.72060        1.77520
H          4.93900       -4.28970        0.61670
