20
TSA8_9_OMe_NO2_H
C          0.77160       -0.61320       -1.35350
C          1.57940       -1.82100       -0.79500
O          1.65280        0.48270       -1.53690
H         -0.08570       -0.39790       -0.66620
N          1.76970       -1.72340        0.64030
C          0.18490       -1.03150       -2.70180
C         -0.73540       -2.24970       -2.52330
C         -0.31200       -3.10260       -1.31470
O          1.09240       -3.11160       -1.17960
H         -0.36840       -0.20760       -3.20150
H          1.03000       -1.32670       -3.36190
H         -1.79550       -1.95730       -2.36250
H         -0.69160       -4.13760       -1.44240
H         -0.77380       -2.71570       -0.37690
C          1.13300        1.65780       -0.95620
H          1.73380        2.51880       -1.31510
H          1.22520        1.61690        0.15020
H          0.08280        1.85050       -1.27140
O          1.42410       -2.61000        1.36120
O          2.35030       -0.66170        1.15430
