21
TSA8_9_CHF2_CCl3_OH
C          2.05920       -1.64980        0.95040
C          0.78540       -1.57810        1.77850
C          1.79110       -1.03950       -0.44370
H          2.83710       -1.02780        1.44620
C          0.71740       -0.72650        3.02970
C          2.57170       -3.11360        0.87520
C          3.89720       -3.19420        0.15630
C          4.05400       -3.90330       -0.96520
O         -0.19810       -2.21060        1.41800
O          2.74370       -3.61460        2.17520
H          1.79550       -3.71930        0.34800
H          4.74890       -2.65790        0.56510
H          3.22610       -4.45030       -1.40540
H          5.02240       -3.93570       -1.45380
F          2.95460       -0.95830       -1.18680
F          0.85860       -1.78660       -1.14340
H          1.40070       -0.00610       -0.32500
Cl         1.92970       -1.26890        4.21770
Cl         1.03520        0.97880        2.61960
Cl        -0.89060       -0.81410        3.80510
H          2.73640       -4.60570        2.10570
