21
TSA8_9_CHF2_CCl3_OH
C          1.68990       -0.08410        0.11610
C          1.46230       -0.98630        1.11570
C          1.83080       -0.33150       -1.36630
H          1.75210        0.96950        0.35930
C          1.22060       -0.53910        2.55330
C          3.00190       -5.34470        1.12610
C          3.04900       -4.00880        1.22850
C          2.36220       -3.09990        0.25060
O          1.43100       -2.33790        0.93140
O          3.63800       -6.13260        2.02270
H          2.45140       -5.81510        0.31910
H          3.60510       -3.55340        2.04220
H          1.84690       -3.68270       -0.54260
H          3.15240       -2.46770       -0.20760
F          3.11840       -0.03210       -1.77170
F          1.49100       -1.60350       -1.77040
H          1.12720        0.35250       -1.88780
Cl         2.45150       -1.27650        3.60870
Cl         1.25900        1.22780        2.84960
Cl        -0.37990       -1.12490        3.06970
H          4.14830       -5.77040        2.76240
