21
TSA8_9_CHF2_CCl3_OH
C          2.64820       -1.60500        1.17330
C          1.10400       -1.86180        1.11650
C          3.07080       -0.72640       -0.02360
H          2.91800       -1.04370        2.09530
C          0.28520       -1.11780        2.18610
C          3.37930       -2.96540        1.24610
C          2.89890       -3.93300        0.15380
C          1.37420       -3.82480       -0.03350
O          0.77850       -3.24760        1.11080
O          4.77390       -2.81330        1.21720
H          3.07470       -3.40820        2.22520
H          3.39900       -3.79790       -0.82880
H          0.95470       -4.83480       -0.21990
H          1.12500       -3.22580       -0.94100
F          4.42200       -0.43680        0.03820
F          2.79490       -1.33570       -1.23340
H          2.51820        0.23540        0.01020
Cl         0.69500       -1.70640        3.82070
Cl         0.56750        0.64190        2.11320
Cl        -1.45200       -1.39770        1.90480
H          5.15920       -3.61090        1.66560
