24
TSA8_9_OMe_Me_CBr3
C          1.49550       -0.07100       -0.04300
C          1.36490       -0.90110       -1.10540
O          1.37900        1.27230       -0.15340
H          1.67220       -0.50160        0.94100
C          1.45660       -2.38650       -0.89360
C          3.41080        1.33480       -4.14620
C          2.76910        1.11100       -2.98670
C          1.30210        0.76660       -2.94690
O          1.13180       -0.48760       -2.38810
C          4.88240        1.64860       -4.19600
H          2.85880        1.28060       -5.08050
H          3.31640        1.16640       -2.05070
H          0.89000        0.73730       -3.97810
H          0.71840        1.53480       -2.40150
C          1.37530        2.13380        0.92310
H          2.21000        2.85690        0.81690
H          1.48240        1.59750        1.89120
H          0.41650        2.69250        0.93510
H          2.28660       -2.79200       -1.50890
H          0.50490       -2.86000       -1.21360
H          1.64240       -2.65610        0.16800
Br         5.43760        1.92810       -6.03140
Br         5.27890        3.26000       -3.18900
Br         5.91110        0.17230       -3.47030
