21
TSA8_9_CHF2_H_OMe
C          1.70100       -0.10730        0.03250
C          1.56450       -1.29160       -0.61010
C          1.74360        1.30330       -0.50460
H          1.82710       -0.17050        1.11020
H          1.64080       -2.18030        0.00880
C          0.64690        0.34650       -4.96290
C          1.27180       -0.31780       -3.97410
C          0.50280       -0.83230       -2.79110
O          1.34770       -1.51530       -1.93670
O          1.28700        0.83700       -6.05990
H         -0.42510        0.50610       -4.89260
H          2.34240       -0.49320       -4.01230
H         -0.26310       -1.54710       -3.15960
H         -0.04030       -0.01740       -2.26870
F          2.88780        1.91330       -0.02620
F          1.77790        1.39130       -1.87520
H          0.86640        1.86290       -0.11840
C          2.63720        0.72790       -6.32480
H          2.85870        1.22510       -7.29130
H          2.92760       -0.34170       -6.40200
H          3.22690        1.22660       -5.52620
