19
TSA8_9_CN_OH_CH2F
C          2.36640       -1.68650        0.80650
C          2.66480       -0.89090        2.05550
C          3.02180       -1.18620       -0.41570
H          1.33440       -1.33310        0.66710
O          2.56370        0.45640        1.99170
C          2.31610       -3.25080        0.95190
C          1.09340       -3.69410        0.19840
C         -0.10610       -3.50030        0.75780
O          2.70190       -1.43690        3.14990
C          3.53750       -4.12910        0.57520
H          2.13380       -3.49290        2.02040
H          1.16730       -4.06300       -0.81970
H         -0.17600       -3.08760        1.76460
H         -1.01270       -3.72540        0.21800
N          3.49270       -0.77780       -1.38830
H          2.48430        1.00140        2.78720
F          3.77590       -4.13010       -0.78880
H          3.30930       -5.18300        0.86950
H          4.46230       -3.84000        1.11490
