19
TSA8_9_CN_OH_CH2F
C          2.78000       -1.80930        0.53250
C          1.65940       -1.04430        1.30330
C          2.43760       -1.59750       -0.88810
H          3.77280       -1.34660        0.71880
O          2.12470        0.12090        1.93870
C          2.73630       -3.30490        1.02420
C          1.32110       -3.82920        0.79330
C          0.28650       -2.88210        1.40620
O          0.90130       -1.86970        2.18010
C          3.72320       -4.41400        0.59130
H          2.92690       -3.23810        2.11930
H          1.13010       -3.93970       -0.30130
H         -0.34490       -3.51030        2.06320
H         -0.37060       -2.43640        0.62620
N          2.12390       -1.45680       -1.99420
H          1.93910        0.03920        2.91140
F          3.57890       -4.78660       -0.73190
H          3.47090       -5.31060        1.21400
H          4.78490       -4.18790        0.82020
