21
TSA8_9_OH_Me_CHF2
C          1.79650        0.04620       -0.16890
C          1.41490        0.82180       -1.21100
O          2.16290        0.55670        1.02290
H          1.80130       -1.03530       -0.27930
C          0.99460        0.16750       -2.49710
C          4.13250        4.10380       -0.62970
C          3.40320        3.02820       -0.29690
C          1.89600        3.06950       -0.25990
O          1.36770        2.18780       -1.18570
C          5.62990        4.04480       -0.67510
H          3.64360        5.04190       -0.87850
H          3.91010        2.09910       -0.05450
H          1.53960        4.08820       -0.52370
H          1.51140        2.85470        0.75770
H          2.42220       -0.02510        1.75050
H          1.65600        0.51800       -3.31700
H         -0.05180        0.45490       -2.73020
H          1.05230       -0.94120       -2.45110
F          6.12880        3.71530        0.57200
F          6.03710        3.09930       -1.59920
H          6.03180        5.03540       -0.97390
