17
TSA8_9_F_OH_NH2
C          1.19050        0.56730        1.48080
C          1.33060        1.43270        0.20680
F          2.43540        0.18200        1.94420
H          0.62980       -0.34900        1.19050
O          0.35200        1.12670       -0.74710
C          0.45420        1.33930        2.59360
C         -0.63210        2.19350        1.94680
C          0.08340        3.24670        1.06440
O          1.32280        2.81870        0.49060
N         -0.08490        0.42350        3.59760
H          1.16640        2.03590        3.09340
H         -1.28390        1.52990        1.33590
H          0.33590        4.08830        1.74270
H         -0.60580        3.64190        0.28830
H          0.86440        0.83540       -1.54330
H         -0.80700       -0.19750        3.16430
H         -0.54250        0.97890        4.35680
