21
TSA8_9_CH2F_CHF2_OH
C          2.75630        1.19680       -0.23790
C          1.40570        1.62820       -0.77760
C          2.56910        0.00130        0.71560
H          3.35050        0.83930       -1.10920
C          1.14450        1.59190       -2.25810
C          3.59290        2.35090        0.39800
C          3.04980        2.92040        1.69470
C          1.96940        3.70190        1.76710
O          0.50750        1.95760       -0.01800
O          4.88650        1.85810        0.64540
H          3.67300        3.17210       -0.35460
H          3.59500        2.72340        2.61420
H          1.40970        3.98440        0.88450
H          1.65060        4.09240        2.72840
F          3.78920       -0.50920        1.12080
H          2.01390       -0.80910        0.19580
H          1.98750        0.30290        1.61290
F         -0.15200        1.98700       -2.53860
F          2.02400        2.43970       -2.90560
H          1.29200        0.55750       -2.63350
H          5.50550        2.63510        0.62960
