21
TSA8_9_CH2F_CHF2_OH
C          1.74490        0.10880       -0.06020
C          1.44950        1.30000       -0.65270
C          1.92080       -0.22400        1.39470
H          1.84750       -0.76070       -0.70370
C          1.25140        1.32310       -2.14590
C          4.19170        4.15480        0.68540
C          3.46420        3.03330        0.79880
C          1.97840        3.06730        1.04030
O          1.31570        2.51900       -0.04410
O          5.52060        4.10610        0.44910
H          3.71660        5.12690        0.77760
H          3.95110        2.06680        0.70000
H          1.62740        4.11620        1.14370
H          1.71440        2.59270        1.99340
F          3.20420       -0.68750        1.60830
H          1.20290       -1.03230        1.64980
H          1.71350        0.58340        2.09660
F         -0.02230        1.77950       -2.43050
F          2.17550        2.18100       -2.71220
H          1.37530        0.32200       -2.61050
H          5.99850        3.27030        0.34030
