18
TSA8_9_CN_I_CBr3
C          2.64230        1.40410       -0.37840
C          1.34770        0.96130       -1.10270
C          2.47310        0.97280        1.01810
H          3.51360        0.90500       -0.85120
I          1.32320       -1.17380       -1.33250
C          2.82290        2.96000       -0.45000
C          2.47710        3.46160       -1.86360
C          1.11790        2.91660       -2.26020
O          1.22440        1.51880       -2.38970
C          4.22530        3.51960       -0.04040
H          2.06440        3.40880        0.23030
H          3.21100        3.10120       -2.61890
H          0.83150        3.34560       -3.24070
H          0.33020        3.21910       -1.52880
N          2.29420        0.66230        2.12220
Br         4.12600        5.46160        0.03930
Br         4.84130        2.94230        1.70620
Br         5.63690        3.06560       -1.30850
