25
TSA8_9_OMe_CCl3_OMe
C          1.27580        1.09180       -1.12050
C          2.38970        0.29980       -1.77680
O          1.83330        1.76450        0.00090
H          0.49420        0.34470       -0.84660
C          2.27400       -1.20280       -1.94430
C          0.67570        2.09700       -2.13580
C         -0.76360        2.44260       -1.74420
C         -1.79460        2.14080       -2.54370
O          3.38240        0.88600       -2.18190
O          1.58520        3.19060       -2.29860
H          0.60780        1.58030       -3.11960
H         -0.97870        2.93750       -0.80700
H         -1.64190        1.64380       -3.49720
H         -2.80610        2.39150       -2.24560
C          0.95500        1.80780        1.10220
H          0.23990        2.64580        0.99880
H          1.55870        2.01860        2.00880
H          0.44380        0.83970        1.29390
Cl         3.70010       -1.89560       -2.76860
Cl         2.12420       -1.98380       -0.34910
Cl         0.83400       -1.59800       -2.91990
C          0.99870        4.46960       -2.17220
H          0.21490        4.62880       -2.94460
H          1.78310        5.23460       -2.34140
H          0.61520        4.63700       -1.14180
