25
TSA8_9_OMe_CCl3_OMe
C          1.37900        0.00290       -0.13890
C          1.35920       -0.38820       -1.42990
O          1.29920        1.31560        0.17790
H          1.46640       -0.72110        0.66510
C          1.46890       -1.84220       -1.85870
C          0.04270        3.52670       -3.55360
C          0.18850        2.66060       -2.53260
C          0.06290        1.17690       -2.73250
O          1.25020        0.54600       -2.41120
O          0.12780        4.87790       -3.40900
H         -0.15670        3.14370       -4.54960
H          0.39030        3.02020       -1.53060
H         -0.17880        0.93640       -3.79000
H         -0.77550        0.80440       -2.10310
C          1.32670        1.76140        1.48000
H          1.25660        2.86860        1.48770
H          2.27840        1.45910        1.96780
H          0.46740        1.34230        2.04590
Cl         2.89510       -2.02870       -2.90830
Cl         1.61980       -3.02350       -0.52170
Cl         0.01840       -2.28160       -2.79540
C          0.32560        5.55430       -2.22220
H          0.34060        6.64480       -2.42470
H          1.29710        5.26320       -1.76980
H         -0.50470        5.33750       -1.51620
