20
TSA8_9_Me_Cl_CF3
C          2.75210        1.43210       -0.48320
C          1.42840        1.00740       -1.08100
C          2.95080        0.71730        0.86480
H          3.54890        1.07120       -1.17000
Cl         1.39130        0.13480       -2.60560
C          2.85490        2.99100       -0.42210
C          1.82990        3.59950        0.51600
C          0.87000        4.42180        0.08120
O          0.37540        1.25250       -0.51250
C          4.26160        3.50150       -0.04200
H          2.67130        3.35380       -1.45990
H          1.87500        3.36870        1.57610
H          0.78590        4.68380       -0.96880
H          0.15630        4.83960        0.78370
H          2.17790        1.02070        1.60170
H          3.95470        0.91560        1.28480
H          2.87460       -0.38190        0.71890
F          4.59100        3.17660        1.26140
F          5.20950        2.96600       -0.89590
F          4.29820        4.88000       -0.16410
