18
TSA8_9_NO2_NO2_Cl
C          2.24640        1.32340       -0.17790
C          1.29630        0.52400       -1.05890
N          2.19690        0.80480        1.17840
H          3.28660        1.22470       -0.56130
N          1.74540       -0.19420       -2.12780
C          1.88940        2.82710       -0.18730
C          1.94120        3.39030       -1.58590
C          0.87150        3.94870       -2.16100
O          0.10010        0.53300       -0.79670
Cl         3.04730        3.73990        0.82110
H          0.87510        2.96730        0.24820
H          2.87340        3.34110       -2.14160
H          0.94130        4.34470       -3.16860
H         -0.07720        4.01730       -1.63700
O          3.17950        0.35070        1.68260
O          1.07430        0.83600        1.86620
O          0.97540       -0.81050       -2.80220
O          3.02550       -0.22440       -2.43220
