22
TSA8_9_CCl3_CN_OMe
C          1.65670        0.06800        0.05840
C          1.38090        0.29920        1.38400
C          1.82980       -1.12570       -0.88300
H          1.83180        0.98260       -0.51120
C          1.32420        1.69950        1.76920
C          2.92240       -3.34900        3.38460
C          2.43760       -2.56750        2.39810
C          1.07140       -1.93220        2.50790
O          1.12750       -0.56320        2.40770
O          4.13000       -3.97530        3.32890
H          2.32280       -3.51170        4.27490
H          3.02120       -2.40320        1.50250
H          0.63610       -2.17050        3.50030
H          0.33190       -2.31140        1.78940
Cl         1.21300       -2.74410       -0.48760
Cl         1.02570       -0.72020       -2.42430
Cl         3.56740       -1.26400       -1.23010
N          1.28030        2.80540        2.06970
C          5.04420       -3.89390        2.29890
H          5.91000       -4.54610        2.53550
H          5.40390       -2.84920        2.18870
H          4.58960       -4.24490        1.34780
