21
TSA8_9_OH_CHF2_CH2F
C          2.14040        2.09720        0.39210
C          0.97470        2.55750       -0.45450
O          1.85250        0.81980        0.90140
H          3.06640        2.04820       -0.23060
C          1.16460        2.85570       -1.91500
C          2.41360        3.06530        1.56900
C          3.55340        2.53230        2.40940
C          3.39450        2.21280        3.69770
O         -0.13190        2.67300        0.05210
C          2.77440        4.47640        1.07640
H          1.49080        3.13970        2.18840
H          4.53120        2.40370        1.95310
H          2.43410        2.32580        4.19130
H          4.23460        1.83260        4.26930
H          2.04360        0.17050        0.17450
F         -0.03200        3.24050       -2.49470
F          2.08780        3.87270       -2.07090
H          1.53540        1.94550       -2.43070
F          2.99910        5.31480        2.15470
H          1.94410        4.90400        0.47680
H          3.68890        4.44770        0.44520
