21
TSA8_9_OH_CHF2_CH2F
C          2.79810        2.28070        0.35140
C          1.36410        1.64890        0.40210
O          3.73850        1.36360        0.84910
H          3.08090        2.54120       -0.69530
C          0.51340        2.07160       -0.79950
C          2.80040        3.54650        1.22800
C          2.41510        3.18400        2.67840
C          1.48960        1.95560        2.71870
O          0.63540        1.94560        1.59680
C          4.11940        4.32880        1.16990
H          2.00680        4.21570        0.83210
H          3.28830        2.95160        3.32650
H          0.89540        1.97280        3.65540
H          2.07810        1.00970        2.74860
H          3.78620        0.62140        0.19140
F         -0.69870        1.40710       -0.76310
F          0.28100        3.43500       -0.78640
H          1.03220        1.79930       -1.74260
F          5.17280        3.57130        1.65200
H          4.03460        5.25400        1.77910
H          4.33780        4.62200        0.12100
