22
TSA8_9_NO2_Me_CH2F
C          2.90240        0.88000        1.47720
C          1.46000        1.29360        1.05420
N          3.06660       -0.55020        1.27770
H          3.65670        1.42010        0.85750
C          1.43260        2.13260       -0.21870
C          3.14880        1.30600        2.94610
C          2.00040        0.85900        3.86800
C          0.63870        1.03100        3.16910
O          0.74610        1.94500        2.09510
C          4.52470        0.90540        3.49330
H          3.11440        2.41950        2.94290
H          2.08570       -0.18220        4.24650
H         -0.11090        1.38550        3.90590
H          0.25600        0.04840        2.80300
O          3.90360       -0.95480        0.52820
O          2.28540       -1.41070        1.89460
H          1.95480        3.09870       -0.04990
H          0.38080        2.33600       -0.50880
H          1.93100        1.58470       -1.04570
F          4.65170       -0.47010        3.57240
H          4.66200        1.33330        4.50920
H          5.32470        1.30680        2.83550
