20
TSA8_9_CHF2_CCl3_I
C          1.75360       -0.12840        0.04570
C          1.45510       -1.45530        0.13160
C          1.90160        0.70990       -1.20200
H          1.88390        0.44870        0.95140
C          1.24220       -2.14570        1.47320
C          3.60530       -4.41950       -2.73220
C          2.67230       -3.94290       -1.90470
C          2.31170       -2.48720       -1.90400
O          1.32340       -2.25830       -0.96180
I          4.10430       -6.46960       -2.71550
H          4.12270       -3.76100       -3.42430
H          2.16990       -4.62150       -1.22080
H          1.93280       -2.22010       -2.91240
H          3.22600       -1.89360       -1.67690
F          3.19880        1.17600       -1.29580
F          1.55610        0.06070       -2.36640
H          1.21620        1.57820       -1.10970
Cl         2.43300       -3.45930        1.64630
Cl         1.38530       -1.10390        2.92330
Cl        -0.38880       -2.86190        1.49570
