20
TSA8_9_CHF2_CCl3_I
C          2.76760       -1.38020       -0.57660
C          1.29870       -1.73440       -0.21200
C          2.80340        0.04080       -1.17780
H          3.37700       -1.28560        0.34630
C          1.02380       -2.49540        1.10770
C          3.41880       -2.42950       -1.51970
C          2.40660       -3.42100       -2.09070
C          1.09780       -2.71030       -2.41680
O          0.44750       -2.12370       -1.29230
I          5.00510       -3.51400       -0.56420
H          3.90580       -1.90790       -2.37160
H          2.18060       -4.23240       -1.37730
H          0.41230       -3.46920       -2.84860
H          1.26520       -1.94530       -3.20100
F          4.11200        0.42530       -1.41480
F          2.08970        0.12860       -2.35760
H          2.36390        0.75800       -0.45140
Cl         1.68910       -4.14440        1.16090
Cl         1.69990       -1.58600        2.48430
Cl        -0.73570       -2.60340        1.37330
