20
TSA8_9_Me_I_CCl3
C          1.44270       -0.18370        2.26530
C          0.94240        0.76950        1.20080
C          1.67400       -1.56350        1.62860
H          2.43470        0.19760        2.58540
I          2.09410        2.45580        0.66240
C          0.49120       -0.16340        3.51400
C         -0.91260       -0.62200        3.15610
C         -1.96570        0.19900        3.22810
O         -0.11860        0.57500        0.62840
C          1.00030       -0.93880        4.76910
H          0.45460        0.90630        3.82650
H         -1.07430       -1.64550        2.83260
H         -1.85400        1.23090        3.54600
H         -2.95400       -0.16290        2.96480
H          0.72070       -2.01940        1.28980
H          2.18940       -2.24690        2.32700
H          2.34320       -1.46020        0.74730
Cl         2.64820       -0.42430        5.22540
Cl        -0.05340       -0.56790        6.16450
Cl         0.98980       -2.71800        4.58780
