20
TSA8_9_Br_CCl3_CH2F
C          3.21810       -1.46000        0.84230
C          1.79010       -1.11430        1.21500
Br         3.78240       -0.28780       -0.61200
H          3.87090       -1.23140        1.71250
C          1.45570       -0.58420        2.59320
C          3.37700       -2.97220        0.52190
C          2.59910       -3.37990       -0.71200
C          1.60730       -4.27480       -0.66180
O          0.90240       -1.25820        0.38610
C          4.85140       -3.37770        0.35740
H          2.99990       -3.53280        1.40820
H          2.85290       -2.93650       -1.67060
H          1.31960       -4.74470        0.27330
H          1.07400       -4.54240       -1.56830
Cl         1.92720       -1.77370        3.83390
Cl         2.33060        0.94050        2.88730
Cl        -0.29280       -0.26090        2.77500
F          5.43640       -2.76660       -0.73710
H          4.92150       -4.47830        0.22070
H          5.42430       -3.11060        1.27100
