20
TSA8_9_Br_CCl3_CH2F
C          3.16330       -1.59800        0.67940
C          1.64940       -1.46130        1.05300
Br         3.43000       -0.73960       -1.04960
H          3.80640       -1.05200        1.40230
C          1.38970       -0.74850        2.39190
C          3.55230       -3.09240        0.67880
C          2.62850       -3.89250       -0.25910
C          1.19840       -3.32870       -0.22810
O          0.95190       -2.70580        1.01450
C          5.03640       -3.36790        0.39910
H          3.35230       -3.45690        1.71110
H          2.96480       -3.91330       -1.31860
H          0.47190       -4.14820       -0.40380
H          1.04140       -2.60000       -1.05820
Cl         2.08570       -1.66140        3.75830
Cl         2.07800        0.89770        2.37380
Cl        -0.36640       -0.59060        2.65320
F          5.39500       -2.98930       -0.88160
H          5.24010       -4.45400        0.51360
H          5.66640       -2.81820        1.13020
