22
TSA8_9_Me_NO2_CCl3
C          2.83600       -1.11940        0.84690
C          1.52300       -0.59990        1.42640
C          2.83980       -0.85400       -0.66930
H          3.66210       -0.52090        1.27670
N          1.49630        0.41570        2.33710
C          3.06310       -2.61500        1.27320
C          2.04610       -3.54120        0.62700
C          1.14340       -4.22020        1.34130
O          0.47030       -1.10560        1.05860
C          4.50560       -3.17070        1.05410
H          2.92250       -2.62730        2.37920
H          2.05100       -3.66620       -0.45150
H          1.09850       -4.13250        2.42190
H          0.43810       -4.87410        0.83830
H          2.03340       -1.41890       -1.18240
H          3.81200       -1.10080       -1.12870
H          2.66970        0.22810       -0.85670
O          0.45250        0.80180        2.77250
O          2.60870        0.98360        2.75240
Cl         4.64540       -4.78150        1.81690
Cl         4.96590       -3.37670       -0.65950
Cl         5.72540       -2.13370        1.84650
