25
TSA8_9_Et_OMe_CN
C          1.56120       -0.07010        0.12240
C          1.27890       -0.68410        1.31830
C          1.70810       -0.59920       -1.29680
H          1.70900        1.00820        0.16860
O          1.38370        0.09160        2.42650
C          2.78190       -4.64080        0.07430
C          2.37420       -3.68110        0.90000
C          0.97560       -3.15340        0.83320
O          0.89890       -1.98760        1.55010
C          4.17280       -5.00830        0.08160
H          2.09110       -5.08920       -0.63760
H          3.08650       -3.24170        1.59960
H          0.29360       -3.91260        1.28030
H          0.60960       -2.98660       -0.18640
C          3.04260       -0.06590       -1.82260
H          0.92400       -0.23400       -2.00780
H          1.71280       -1.69290       -1.34680
H          2.97430        1.03700       -1.97330
H          3.30130       -0.54600       -2.78610
H          3.86010       -0.25230       -1.09400
C          1.25490       -0.45650        3.68890
H          1.61190        0.24910        4.46400
H          1.87380       -1.38240        3.77340
H          0.19310       -0.72140        3.86060
N          5.29530       -5.28630        0.10630
