23
TSA8_9_Br_CCl3_Et
C          2.99910       -1.13480       -2.00830
C          1.75400       -1.97930       -1.77470
Br         2.81710        0.50910       -0.98040
H          3.87890       -1.65310       -1.57640
C          1.81480       -3.30420       -1.03740
C          3.30480       -0.78610       -3.49860
C          2.16220       -0.02330       -4.14190
C          2.30160        1.23730       -4.56650
O          0.66750       -1.54600       -2.12970
C          3.63210       -2.01530       -4.37420
H          4.20880       -0.13500       -3.50190
H          1.20070       -0.50610       -4.27890
H          1.46310        1.74920       -5.02700
H          3.24260        1.76780       -4.45940
Cl         2.80860       -4.48920       -1.91420
Cl         2.50580       -3.05990        0.58740
Cl         0.18900       -4.02020       -0.83360
C          4.94790       -2.69710       -3.98830
H          3.75430       -1.67790       -5.42780
H          2.79430       -2.74480       -4.34530
H          5.78970       -1.97780       -4.07430
H          5.13870       -3.54570       -4.67860
H          4.92670       -3.09210       -2.95610
