19
TSA8_9_CBr3_NH2_F
C          1.40220       -0.99080        1.36940
C          2.80200       -1.18720        1.97540
C          1.33070       -1.03480       -0.20400
H          1.10710        0.04390        1.65060
N          3.89760       -1.56170        1.26670
C          0.44440       -1.98820        2.10310
C         -1.02490       -1.78180        1.84850
C         -1.65120       -0.65230        2.19480
O          2.93340       -0.99290        3.17590
F          0.78170       -3.29240        1.78620
H          0.57360       -1.87620        3.20240
H         -1.59840       -2.58080        1.38750
H         -1.11530        0.16410        2.66840
H         -2.71370       -0.54170        2.00370
Br        -0.40340       -0.50500       -0.90560
Br         2.53650        0.28490       -0.98100
Br         1.71470       -2.78250       -0.97930
H          4.80360       -1.67260        1.74590
H          3.87860       -1.75390        0.26100
