19
TSA8_9_CBr3_NH2_F
C          1.42360       -0.36040        0.07390
C          1.97100       -1.16320        1.02620
C          2.00710       -0.07580       -1.29420
H          0.49120        0.14040        0.30100
N          3.21150       -1.82490        0.82860
C         -0.93680       -2.33150        4.53490
C         -0.37980       -2.47280        3.32810
C         -0.00490       -1.29150        2.48210
O          1.35430       -1.34800        2.22870
F         -1.25270       -3.42900        5.26990
H         -1.14440       -1.34690        4.94300
H         -0.18650       -3.47100        2.94610
H         -0.24250       -0.33720        3.00000
H         -0.59850       -1.35180        1.54560
Br         0.84540        1.15170       -2.24750
Br         3.74830        0.77860       -1.17060
Br         2.12070       -1.69620       -2.35660
H          3.58990       -2.42010        1.57990
H          3.74780       -1.76120       -0.04470
