20
TSA8_9_CF3_CHF2_I
C          2.47760       -0.98840       -0.60090
C          1.23780       -1.02890        0.27720
C          2.44980        0.31000       -1.44290
H          3.37370       -0.94820        0.05820
C          1.36860       -0.99110        1.77470
C          2.56490       -2.27660       -1.46960
C          2.52720       -3.51250       -0.60350
C          1.56150       -4.42950       -0.71990
O          0.12770       -1.08680       -0.23340
I          4.38310       -2.41810       -2.60770
H          1.71500       -2.28860       -2.18760
H          3.30830       -3.66130        0.13650
H          1.56630       -5.30580       -0.07980
H          0.76340       -4.31740       -1.44700
F          3.61450        0.46440       -2.16890
F          1.37720        0.30380       -2.31840
F          2.33110        1.40450       -0.60340
F          0.12260       -1.02470        2.37640
F          2.10760       -2.07550        2.20920
H          1.88520       -0.05530        2.07450
