21
TSA8_9_CF3_CH2F_CN
C          1.84330        0.34810       -1.84100
C          0.84200       -0.76240       -1.28220
C          1.98270        1.55850       -0.83770
H          2.83450       -0.13240       -2.00170
C          1.49300       -1.84620       -0.40080
C          1.36550        0.91770       -3.22810
C          0.63380       -0.09170       -4.08150
C         -0.45150       -0.67060       -3.20910
O          0.16970       -1.50930       -2.28000
C          2.46040        1.47720       -4.04480
H          0.61840        1.71770       -3.05650
H          1.29660       -0.90550       -4.45870
H         -1.13290       -1.27550       -3.83480
H         -1.07140        0.11690       -2.71410
F          3.08130        1.41150       -0.01490
F          2.12990        2.77260       -1.50020
F          0.84980        1.67260       -0.04580
F          2.25610       -2.69850       -1.18800
H          0.67750       -2.46920        0.03670
H          2.11300       -1.45610        0.42570
N          3.29110        1.92570       -4.71580
