19
TSA8_9_OH_NH2_NH2
C          1.71870        0.05950       -0.11040
C          1.47500        1.08500       -0.95660
O          1.86000        0.23250        1.21690
H          1.77970       -0.95080       -0.50630
N          1.29710        0.80200       -2.33620
C          3.97980        3.63720       -0.89340
C          3.50090        3.05470        0.21420
C          2.02000        3.02430        0.47980
O          1.37520        2.39010       -0.56730
N          5.37060        3.66490       -1.17080
H          3.29660        4.09320       -1.60460
H          4.17730        2.59510        0.93080
H          1.65410        4.07090        0.53720
H          1.79080        2.55170        1.45340
H          1.99750       -0.52650        1.79990
H          1.12670        1.57200       -2.99930
H          1.37120       -0.15820       -2.70250
H          6.05260        3.23540       -0.52340
H          5.70750        4.11150       -2.03470
