23
TSA8_9_CHF2_I_Et
C          2.55210       -1.59830        0.64750
C          1.59370       -0.54530        1.16720
C          2.49170       -1.55590       -0.90130
H          3.56820       -1.27190        0.95780
I          2.32660        1.11350        2.24960
C          2.25900       -2.95920        1.37810
C          0.96620       -3.60860        0.92570
C         -0.08510       -3.74530        1.74020
O          0.39090       -0.63560        0.97110
C          3.40880       -4.00450        1.43800
H          2.15790       -2.67220        2.45210
H          0.88490       -3.98460       -0.08880
H         -0.05420       -3.38920        2.76490
H         -0.99150       -4.21940        1.37820
F          3.45560       -2.32630       -1.50150
F          1.24700       -1.92110       -1.38190
H          2.68530       -0.51180       -1.23080
C          3.76840       -4.78160        0.17110
H          3.09280       -4.77310        2.17930
H          4.32690       -3.52360        1.84020
H          2.87930       -5.28630       -0.25890
H          4.51010       -5.56480        0.43630
H          4.26250       -4.15380       -0.58050
