23
TSA8_9_CHF2_I_Et
C          1.85930        0.01130        0.11550
C          1.46420       -0.17940        1.40370
C          1.82890       -0.84000       -1.13680
H          2.28510        0.98950       -0.08880
I          1.73520        1.47220        2.69890
C          2.32060       -4.38430        2.14510
C          2.00210       -3.29570        1.42610
C          0.69270       -2.57010        1.62210
O          0.90400       -1.26740        2.01370
C          3.62040       -5.11760        1.94840
H          1.63220       -4.75860        2.89760
H          2.70370       -2.92940        0.68460
H          0.11350       -3.06760        2.42940
H          0.03120       -2.60840        0.73890
F          3.12330       -1.00830       -1.59220
F          1.24000       -2.07110       -1.02910
H          1.25960       -0.28140       -1.90790
C          3.73210       -5.70590        0.54260
H          3.67340       -5.95140        2.68120
H          4.47120       -4.42830        2.13780
H          2.89280       -6.40920        0.35380
H          4.68910       -6.26080        0.44740
H          3.71480       -4.90450       -0.22550
