23
TSA8_9_CHF2_I_Et
C          2.53120       -1.70460        0.92500
C          1.27050       -0.90170        1.36980
C          2.59050       -1.68310       -0.61130
H          3.43550       -1.16580        1.28540
I          1.73570        1.05630        2.10140
C          2.51060       -3.09530        1.63260
C          1.13670       -3.78900        1.52040
C         -0.00610       -2.76480        1.61960
O          0.44050       -1.59970        2.28170
C          3.71050       -4.05620        1.42140
H          2.59370       -2.80900        2.70690
H          0.98280       -4.38420        0.59720
H         -0.86200       -3.21630        2.16080
H         -0.39640       -2.51000        0.60390
F          3.82330       -2.10540       -1.06560
F          1.58480       -2.45060       -1.16950
H          2.47490       -0.63610       -0.96550
C          3.70560       -4.91630        0.15130
H          3.70580       -4.78100        2.26550
H          4.65480       -3.47480        1.48900
H          2.82510       -5.58900        0.13260
H          4.61090       -5.55940        0.15430
H          3.71730       -4.33290       -0.78030
