22
TSA8_9_Et_F_NH2
C          2.41640       -1.52980        0.05470
C          1.18640       -1.42940        0.93220
C          2.39570       -0.32510       -0.92950
H          3.27150       -1.39800        0.75520
F          1.33640       -1.27160        2.27370
C          2.58480       -2.96280       -0.56420
C          1.72020       -3.26720       -1.77710
C          0.39680       -3.44190       -1.72570
O          0.06270       -1.41950        0.45840
N          3.99560       -3.22290       -0.88000
H          2.33760       -3.69930        0.23500
H          2.20400       -3.39420       -2.74170
H         -0.15470       -3.38850       -0.79890
H         -0.15050       -3.67680       -2.63290
C          3.64860       -0.11080       -1.77290
H          2.27440        0.59660       -0.31710
H          1.51880       -0.39680       -1.60930
H          4.55050       -0.05830       -1.12670
H          3.55230        0.84950       -2.32280
H          3.75490       -0.89290       -2.54460
H          4.30890       -2.73860       -1.74380
H          4.12500       -4.24780       -1.04900
