20
TSA8_9_Br_CH2F_CBr3
C          2.83590        0.69000       -2.02160
C          1.56830        0.02920       -2.51390
Br         2.57590        1.21190       -0.16390
H          3.64500       -0.06910       -2.00120
C          1.58410       -1.41680       -2.92250
C          3.33340        1.90990       -2.85960
C          2.31710        3.03890       -2.85210
C          2.57200        4.21930       -2.27820
O          0.52120        0.65760       -2.55300
C          3.76230        1.57260       -4.31980
H          4.25900        2.25700       -2.34650
H          1.35240        2.89790       -3.32770
H          1.82140        5.00280       -2.29540
H          3.52160        4.41540       -1.79000
F          0.32490       -1.82730       -3.32470
H          1.90810       -2.04020       -2.06310
H          2.29510       -1.56170       -3.76190
Br         4.57020        3.13740       -5.14570
Br         5.12040        0.18240       -4.36090
Br         2.29850        1.02340       -5.48000
