20
TSA8_9_I_Me_Me
C          2.09220        1.95580        1.05970
C          0.84750        2.55350        0.44940
I          1.77090       -0.16290        1.25800
H          2.95100        2.09570        0.36570
C          0.90860        3.23910       -0.88190
C          2.43220        2.60800        2.42250
C          3.66900        1.96890        3.01370
C          3.64610        1.34130        4.19420
O         -0.21900        2.47970        1.04210
C          2.68920        4.11540        2.27650
H          1.56730        2.46870        3.11010
H          4.60470        2.02120        2.46470
H          2.73170        1.26660        4.77460
H          4.55330        0.89420        4.58780
H          1.61070        4.09700       -0.82740
H         -0.09480        3.61570       -1.17520
H          1.26230        2.52400       -1.65350
H          3.54160        4.30380        1.58830
H          2.92570        4.55860        3.26780
H          1.79070        4.63320        1.88070
