20
TSA8_9_I_Me_Me
C          2.69940        2.29060        0.93510
C          1.31850        1.55960        0.87080
I          4.30600        0.84980        1.01660
H          2.88770        2.84050       -0.01320
C          0.37340        2.27770       -0.09220
C          2.68330        3.25710        2.13060
C          2.42470        2.47960        3.43560
C          1.55810        1.23320        3.18310
O          0.64770        1.46260        2.13200
C          3.93690        4.12980        2.23210
H          1.81840        3.93870        1.97390
H          3.35360        2.13770        3.94250
H          1.01290        0.97410        4.11390
H          2.18130        0.34310        2.94620
H          0.16570        3.31040        0.25980
H         -0.58530        1.72160       -0.15690
H          0.81940        2.31980       -1.10820
H          4.07060        4.71140        1.29540
H          4.84230        3.51110        2.40260
H          3.83230        4.84390        3.07650
