20
TSA8_9_F_CHF2_Me
C          2.77410        2.33060       -1.37190
C          1.44690        1.63320       -1.18610
F          3.80110        1.42820       -1.14530
H          2.84220        2.67120       -2.42860
C          0.48230        1.52950       -2.33420
C          2.92550        3.56720       -0.45620
C          2.95230        3.17460        1.00500
C          2.04330        3.61990        1.87750
O          1.16070        1.13760       -0.10570
C          4.21530        4.32460       -0.79040
H          2.07350        4.25580       -0.65870
H          3.73730        2.51170        1.35890
H          1.24330        4.28470        1.56710
H          2.09830        3.31660        2.91810
F         -0.65970        0.84490       -1.95620
F          0.12830        2.79620       -2.76080
H          0.96510        0.98450       -3.17230
H          5.10780        3.68450       -0.62050
H          4.30000        5.23170       -0.15420
H          4.20480        4.64850       -1.85310
