20
TSA8_9_F_CHF2_Me
C          2.18080        0.32630       -0.34100
C          1.50310        1.43070       -0.71700
F          2.58930        0.11570        0.93540
H          2.39650       -0.45410       -1.06420
C          1.04190        1.57410       -2.14250
C          2.87190        4.77700       -0.34300
C          3.13280        3.74800        0.47490
C          2.00650        2.98620        1.12100
O          1.19050        2.44300        0.14260
C          3.97020        5.55200       -1.00210
H          1.84260        5.06790       -0.54050
H          4.15840        3.45530        0.67850
H          1.41060        3.69900        1.72740
H          2.39540        2.21670        1.81260
F         -0.32890        1.72680       -2.17520
F          1.63300        2.69600       -2.69280
H          1.31830        0.69380       -2.76210
H          4.57020        4.88090       -1.65280
H          4.62770        6.00910       -0.23320
H          3.53330        6.36000       -1.62690
