17
TSA8_9_Cl_F_CF3
C          1.82770        1.44350       -1.74320
C          0.56130        1.04990       -2.45340
Cl         1.55950        1.22440        0.01400
H          2.64020        0.74910       -2.05020
F          0.57110        0.01210       -3.32990
C          2.25540        2.90280       -2.05830
C          3.50250        3.24630       -1.26960
C          3.52070        4.23180       -0.36620
O         -0.47990        1.65450       -2.24850
C          2.54480        3.12910       -3.55970
H          1.42640        3.58500       -1.76140
H          4.41100        2.67550       -1.44060
H          2.63500        4.82590       -0.16360
H          4.43240        4.44900        0.18080
F          3.55420        2.28600       -3.99340
F          1.41380        2.90160       -4.32240
F          2.94040        4.43970       -3.76540
