19
TSA8_9_CCl3_I_NO2
C          1.83000       -0.02470        0.05930
C          1.13120        0.52380        1.07170
C          2.21200       -1.48100       -0.12780
H          2.15690        0.64470       -0.73160
I          0.76240        2.62080        0.96570
C         -0.13290       -0.63850        5.40910
C         -0.41850       -0.82040        4.10650
C         -0.16970        0.25800        3.09090
O          0.67650       -0.21830        2.11310
N         -0.36660       -1.64480        6.38780
H          0.28600        0.30920        5.73630
H         -0.84400       -1.75880        3.76260
H          0.27660        1.15440        3.57460
H         -1.14010        0.54240        2.63000
Cl         1.67940       -2.61700        1.14590
Cl         1.51650       -2.03890       -1.66830
Cl         3.98430       -1.58870       -0.24350
O         -0.82290       -2.70590        6.08500
O         -0.08030       -1.40000        7.64810
