14
TSA8_9_F_F_F
C          1.49840       -1.89220       -0.88690
C          1.29510       -0.92360        0.24700
F          0.97590       -1.37570       -2.06270
H          2.59110       -2.03650       -1.02560
F          1.76770       -1.22180        1.48570
C          0.85460       -3.25260       -0.58330
C         -0.63910       -3.12960       -0.41470
C         -1.25260       -3.46750        0.72350
O          0.70980        0.13260        0.06550
F          1.11200       -4.12110       -1.62870
H          1.32220       -3.67300        0.33510
H         -1.23380       -2.75420       -1.24250
H         -0.69290       -3.84480        1.57370
H         -2.32930       -3.36460        0.80960
