14
TSA8_9_F_F_F
C          2.06390       -0.11250        0.06290
C          1.30690       -1.07460        0.59230
F          2.19810       -0.00080       -1.28520
H          2.57800        0.59220        0.70760
F          1.18450       -1.16000        1.94550
C         -0.55760       -5.03140       -1.00050
C         -0.73570       -3.71120       -0.88790
C         -0.17980       -2.92880        0.26560
O          0.66430       -1.95110       -0.21550
F         -1.08190       -5.69870       -2.06120
H          0.00210       -5.58660       -0.25410
H         -1.30290       -3.18500       -1.64960
H          0.37560       -3.59010        0.96850
H         -1.02430       -2.45620        0.81140
