20
TSA8_9_Cl_CHF2_CHF2
C          2.84630        2.02740       -1.48960
C          1.44790        1.55300       -0.97280
Cl         4.11520        1.45510       -0.36030
H          3.07800        1.54880       -2.46620
C          0.56870        1.03730       -2.11590
C          2.82850        3.56460       -1.62130
C          2.49130        4.21000       -0.26130
C          1.57260        3.30170        0.57400
O          0.71750        2.56020       -0.26660
C          4.09750        4.17050       -2.24180
H          1.99020        3.80700       -2.31030
H          3.38420        4.43730        0.36100
H          0.97970        3.92430        1.27500
H          2.16290        2.60740        1.21410
F         -0.61940        0.55060       -1.60320
F          0.29160        2.05000       -3.01700
H          1.08600        0.20980       -2.64560
F          5.20710        3.94910       -1.44570
F          4.32130        3.62570       -3.49360
H          3.96270        5.26720       -2.35720
