23
TSA8_9_CH2F_Me_CF3
C          1.99020        0.54180       -2.15920
C          0.64620       -0.10710       -2.41810
C          1.96980        1.11330       -0.72540
H          2.77530       -0.24670       -2.19930
C          0.55820       -1.58120       -2.67990
C          2.31820        1.63050       -3.23380
C          3.68690        2.22760       -2.97650
C          3.85900        3.52740       -2.71660
O         -0.37400        0.56720       -2.41110
C          2.30870        1.07480       -4.67830
H          1.54320        2.42870       -3.17660
H          4.55850        1.57930       -3.00500
H          3.01630        4.21050       -2.67860
H          4.85650        3.91560       -2.53820
F          3.20950        1.59820       -0.35090
H          1.69850        0.30890       -0.00780
H          1.21860        1.92810       -0.63920
H          1.15430       -1.83750       -3.58060
H         -0.49580       -1.88890       -2.84820
H          0.95880       -2.13800       -1.80710
F          3.22280        0.04220       -4.80850
F          1.05390        0.60990       -5.02760
F          2.64530        2.08160       -5.56750
