23
TSA8_9_CH2F_Me_CF3
C          2.29060        0.24700       -2.36160
C          0.83240        0.37250       -1.78990
C          3.31070        0.59510       -1.25820
H          2.49030       -0.81750       -2.61990
C          0.00620       -0.87290       -2.10890
C          2.37780        1.11400       -3.64620
C          1.99910        2.57690       -3.33710
C          0.92410        2.65500       -2.24170
O          0.11050        1.50610       -2.27540
C          3.68710        1.02580       -4.45160
H          1.58150        0.71100       -4.31260
H          2.85530        3.20930       -3.01770
H          0.31070        3.56600       -2.39780
H          1.36970        2.77070       -1.22870
F          4.59830        0.29050       -1.65510
H          3.09630       -0.02440       -0.36120
H          3.26710        1.65870       -0.95560
H         -0.10250       -0.99320       -3.20830
H         -1.00230       -0.77780       -1.65500
H          0.49500       -1.77600       -1.68680
F          3.98710       -0.29720       -4.72330
F          3.53080        1.69540       -5.65240
F          4.74320        1.60390       -3.77240
