17
TSA8_9_F_F_CF3
C          3.02960       -0.09760       -2.18150
C          1.58880       -0.15680       -1.74950
F          3.84540       -0.27410       -1.07580
H          3.19800       -0.94620       -2.87880
F          0.77430       -1.12320       -2.24830
C          3.37390        1.22250       -2.91570
C          3.23500        2.41400       -1.99040
C          2.37140        3.40470       -2.23340
O          1.14480        0.64250       -0.94030
C          4.80260        1.18690       -3.49140
H          2.67620        1.32330       -3.77870
H          3.85740        2.46860       -1.10120
H          1.73080        3.39080       -3.10950
H          2.30180        4.24240       -1.54690
F          5.74080        1.05090       -2.48180
F          4.93470        0.12720       -4.37160
F          5.05810        2.35960       -4.18130
