21
TSA8_9_CF3_I_OMe
C          1.71610        0.14430        0.00150
C          1.37200        1.43880        0.24670
C          2.03670       -1.04790        0.87820
H          1.76800       -0.11840       -1.05130
I          0.98240        2.62370       -1.46220
C          3.82850        2.56170        3.59200
C          3.10250        1.72230        2.82880
C          1.60130        1.84160        2.72410
O          1.23320        2.11660        1.42600
O          5.18420        2.49320        3.70080
H          3.32260        3.34070        4.15380
H          3.59570        0.94320        2.26160
H          1.24830        2.68630        3.35330
H          1.06040        0.96200        3.11190
F          3.32770       -1.45900        0.60440
F          1.92700       -0.84930        2.22770
F          1.17250       -2.07230        0.54000
C          6.00420        1.59020        3.05460
H          7.05760        1.78770        3.34010
H          5.90860        1.70520        1.95350
H          5.74420        0.55240        3.35350
