19
TSA8_9_CBr3_Br_NH2
C          1.80260       -0.02060       -0.03760
C          1.10390       -1.17100       -0.07960
C          2.16490        0.89570       -1.19160
H          2.15050        0.30750        0.93820
Br         0.80240       -2.08770        1.58880
C         -0.16530       -4.22930       -3.35560
C         -0.48700       -3.06260       -2.77750
C         -0.18200       -2.78770       -1.33340
O          0.62390       -1.67360       -1.24400
N         -0.46190       -4.47390       -4.71920
H          0.32730       -5.00820       -2.78000
H         -0.98290       -2.29010       -3.35830
H          0.32630       -3.65940       -0.86590
H         -1.13790       -2.59820       -0.79880
Br         1.42500        2.64450       -0.81700
Br         4.09230        1.05740       -1.25240
Br         1.56870        0.38950       -2.97490
H         -0.92760       -3.76230       -5.30050
H         -0.21110       -5.37980       -5.14140
