23
TSA8_9_CBr3_CBr3_CF3
C          2.08880       -0.29700        0.03310
C          1.97260       -0.36680        1.39730
C          1.75830       -1.20270       -1.14520
H          2.54870        0.61870       -0.33030
C          2.57190        0.78120        2.20210
C         -0.00720       -4.20370        3.24920
C          0.59550       -3.54290        2.24900
C          0.26240       -2.11040        1.92340
O          1.38300       -1.34230        2.14530
C          0.36860       -5.61880        3.57840
H         -0.77310       -3.71430        3.84490
H          1.36580       -4.04860        1.67770
H         -0.52860       -1.75260        2.61700
H         -0.15150       -1.96890        0.91070
Br         0.33640       -0.38870       -2.17530
Br         3.33270       -1.21700       -2.27710
Br         1.37440       -3.08250       -0.90870
Br         4.48350        0.90560        1.88190
Br         1.73480        2.47000        1.72980
Br         2.33240        0.54740        4.12130
F          1.70970       -5.68040        3.91400
F         -0.38320       -6.06320        4.65020
F          0.13090       -6.43630        2.48890
