15
TSA8_9_OH_Br_Br
C          1.88390        0.10990       -0.06540
C          1.19870        0.35460        1.05470
O          2.34700       -1.12970       -0.32840
H          2.06980        0.91120       -0.77500
Br         0.57030        2.14950        1.35970
C         -0.88820       -2.68520        3.90540
C         -0.83080       -1.71620        2.98550
C          0.18360       -0.61190        3.06070
O          0.98010       -0.66050        1.93380
Br        -2.19150       -4.07660        3.76630
H         -0.19850       -2.70250        4.74390
H         -1.53280       -1.72340        2.15700
H          0.83030       -0.72830        3.95640
H         -0.35900        0.35020        3.15390
H          2.83770       -1.30980       -1.14260
