15
TSA8_9_OH_Br_Br
C          0.81370       -1.26130        0.92340
C          1.22650        0.15020        1.40680
O          1.92850       -1.96620        0.44670
H          0.06950       -1.13440        0.10280
Br         0.07990        1.58800        0.75120
C          0.16200       -2.06330        2.06360
C         -0.71890       -1.11650        2.86230
C          0.21260       -0.07920        3.53250
O          1.40670        0.22680        2.80830
Br        -0.84740       -3.56750        1.36940
H          0.94010       -2.46000        2.75440
H         -1.43220       -0.62870        2.16260
H          0.54580       -0.54470        4.48370
H         -0.34880        0.84250        3.79660
H          2.13850       -1.59240       -0.44880
