20
TSA8_9_NO2_OMe_Cl
C          2.01330        0.13560        0.09050
C          1.99030       -0.25260       -1.21970
N          1.63290        1.36600        0.71230
H          2.37760       -0.62600        0.77880
O          2.40820       -1.52720       -1.43780
C          3.31760        3.16660       -3.44800
C          2.69340        2.56460       -2.42900
C          1.41710        1.78810       -2.63080
O          1.61610        0.45790       -2.33300
Cl         4.81370        4.04560       -3.18010
H          2.91770        3.11820       -4.45660
H          3.12570        2.62700       -1.43580
H          1.11630        1.83870       -3.69880
H          0.55130        2.20490       -2.09150
O          1.77240        1.46980        1.89280
O          1.05800        2.34900        0.06850
C          2.55590       -2.08310       -2.69090
H          2.90490       -3.13060       -2.58680
H          3.31200       -1.51160       -3.27220
H          1.58590       -2.07840       -3.23240
