20
TSA8_9_NO2_OMe_Cl
C          2.91530        0.88740       -1.03260
C          1.69440        0.11380       -1.59160
N          2.58800        1.42030        0.27810
H          3.79760        0.21370       -0.94520
O          1.75350       -1.28890       -1.42380
C          3.29240        1.99720       -2.03390
C          2.07160        2.80300       -2.50060
C          0.85920        1.88010       -2.75210
O          1.26490        0.52990       -2.88020
Cl         4.59650        3.05840       -1.43560
H          3.67740        1.48180       -2.94190
H          1.77370        3.62010       -1.80950
H          0.33160        2.21190       -3.66970
H          0.11520        1.97970       -1.92540
O          3.23170        1.09740        1.23070
O          1.57280        2.24280        0.43560
C          2.49880       -1.87540       -2.47010
H          2.78720       -2.90130       -2.16250
H          3.44700       -1.33270       -2.68260
H          1.87820       -1.95800       -3.38840
