27
TSA8_9_Et_OMe_CF3
C          3.03610       -1.37070       -0.92360
C          1.81260       -2.30600       -0.83490
C          2.57110        0.11270       -0.88970
H          3.66890       -1.52120       -0.02020
O          1.14910       -2.16450        0.39360
C          3.83930       -1.75090       -2.21580
C          2.97280       -2.57120       -3.20320
C          1.52730       -2.05500       -3.18870
O          0.89810       -2.09810       -1.90580
C          5.11770       -2.54490       -1.88090
H          4.16390       -0.83020       -2.73880
H          2.92070       -3.63620       -2.88330
H          0.93750       -2.68130       -3.89070
H          1.50940       -1.01310       -3.57050
C          3.72820        1.11200       -0.80250
H          1.94820        0.26970        0.01690
H          1.94900        0.35870       -1.77470
H          4.34100        0.91220        0.10230
H          3.31720        2.14130       -0.72880
H          4.38150        1.07590       -1.69640
C          1.10950       -3.43810        0.98420
H          0.66790       -3.34020        1.99690
H          2.13140       -3.86190        1.11730
H          0.45640       -4.12550        0.40120
F          4.80520       -3.71830       -1.21550
F          5.80160       -2.85590       -3.04400
F          5.94780       -1.78390       -1.07670
