23
TSA8_9_Br_CF3_Et
C          3.16320       -0.81070        1.72720
C          1.68460       -0.52460        1.58300
Br         4.02070       -0.31510        0.04470
H          3.56310       -0.14350        2.52200
C          1.01940        0.49660        2.46460
C          3.40550       -2.28200        2.17530
C          3.04130       -3.27420        1.08810
C          2.05820       -4.16680        1.24220
O          1.02470       -1.12120        0.74390
C          4.83090       -2.55940        2.72150
H          2.74360       -2.44600        3.05740
H          3.59070       -3.26730        0.15220
H          1.47880       -4.21450        2.15890
H          1.82730       -4.86110        0.44090
F         -0.32820        0.59640        2.16490
F          1.15750        0.12450        3.78920
F          1.61360        1.73030        2.27360
C          5.99000       -2.42820        1.73200
H          4.84500       -3.60030        3.11420
H          5.02760       -1.87940        3.57910
H          5.85390       -3.10500        0.86390
H          6.93440       -2.70950        2.24420
H          6.10940       -1.38420        1.38950
