23
TSA8_9_Br_CF3_Et
C          3.19360       -0.93920        1.56450
C          1.63380       -0.83120        1.46280
Br         3.89930       -0.99470       -0.25470
H          3.61900       -0.02270        2.02690
C          1.06180        0.22200        2.41880
C          3.53810       -2.18180        2.41640
C          2.94360       -3.45030        1.77190
C          1.62070       -3.13180        1.05250
O          0.95400       -2.06790        1.69600
C          5.01060       -2.34330        2.86960
H          2.97970       -2.03820        3.36830
H          3.60710       -3.94830        1.03610
H          0.98160       -4.03850        1.04210
H          1.79210       -2.87420       -0.01710
F         -0.30840        0.30040        2.24860
F          1.33230       -0.11490        3.73310
F          1.60990        1.46120        2.14250
C          6.05100       -2.57640        1.77330
H          5.05730       -3.20860        3.56680
H          5.30850       -1.43650        3.43980
H          5.82210       -3.48590        1.18290
H          7.04540       -2.71810        2.24680
H          6.13470       -1.69890        1.10610
