20
TSA8_9_CCl3_CBr3_H
C          0.94470       -0.48100        1.10170
C          2.26280       -0.01160        1.73940
C          1.11950       -1.16650       -0.29010
H          0.39130        0.45370        0.85260
C          3.34600       -0.84500        2.42160
C          0.03200       -1.26800        2.07790
C         -0.20770       -0.53230        3.37200
C         -0.82470        0.65270        3.41360
O          2.46680        1.19500        1.70740
H          0.47060       -2.25330        2.30880
H         -0.95440       -1.46340        1.60740
H          0.12300       -0.98650        4.30160
H         -0.98300        1.14840        4.36580
H         -1.17900        1.13450        2.50790
Cl         1.87490       -2.77630       -0.25440
Cl        -0.46790       -1.36090       -1.08730
Cl         2.10160       -0.13240       -1.36650
Br         4.99670       -0.64780        1.42520
Br         3.63450       -0.12240        4.19910
Br         3.06520       -2.74520        2.69570
