20
TSA8_9_CCl3_CBr3_H
C          1.46020       -0.30570        0.29380
C          2.02370       -0.33600        1.54900
C          1.99100       -0.66710       -1.09270
H          0.43970        0.04780        0.25010
C          3.46960       -0.71490        1.90950
C         -1.66630       -0.94100        4.49120
C         -0.41060       -0.73790        4.08600
C         -0.11610       -0.06050        2.78080
O          1.25710        0.03150        2.62090
H         -1.85720       -1.43280        5.43950
H         -2.50750       -0.62110        3.88360
H          0.40870       -1.07150        4.71750
H         -0.54930        0.96220        2.79610
H         -0.59410       -0.65780        1.97650
Cl         2.32060       -2.40470       -1.26900
Cl         0.72130       -0.30980       -2.29820
Cl         3.40320        0.27880       -1.60560
Br         4.77840        0.53710        1.22540
Br         3.73740       -0.65060        3.84070
Br         3.96200       -2.52430        1.43570
