20
TSA8_9_CCl3_CBr3_H
C          0.70660       -0.73880        1.03240
C          1.93900        0.00450        1.66570
C          0.91490       -1.70960       -0.16310
H          0.13310        0.10590        0.58900
C          3.20190       -0.74320        2.20170
C         -0.18670       -1.33460        2.14650
C         -0.24050       -0.43030        3.38510
C          0.20910        0.99160        3.04750
O          1.55400        1.04440        2.57770
H          0.15940       -2.33560        2.47600
H         -1.21420       -1.46030        1.74510
H          0.45350       -0.80250        4.16580
H          0.14490        1.59310        3.97780
H         -0.47560        1.46310        2.31010
Cl         1.65070       -3.26990        0.30020
Cl        -0.66230       -2.10400       -0.90490
Cl         1.88280       -0.93230       -1.44590
Br         4.39310        0.54100        3.04810
Br         2.83900       -2.11260        3.52530
Br         4.30050       -1.50380        0.79850
