17
TSA8_9_F_CHF2_F
C          2.01460        2.04050       -0.32010
C          0.86880        2.04110       -1.29910
F          1.58140        1.45580        0.85690
H          2.85130        1.43160       -0.72830
C          0.98190        1.30250       -2.60290
C          2.52170        3.47340       -0.06790
C          3.70700        3.50860        0.86590
C          3.63250        3.12910        2.14590
O         -0.16190        2.63840       -1.02400
F          2.90680        4.02930       -1.27720
H          1.70780        4.09950        0.35880
H          4.65820        3.87360        0.48900
H          2.70430        2.77490        2.58020
H          4.51370        3.18200        2.77700
F         -0.18580        1.42230       -3.33640
F          2.03220        1.81710       -3.34020
H          1.16950        0.22710       -2.40190
