17
TSA8_9_F_CHF2_F
C          1.80580        0.15190       -0.11820
C          1.56250        1.24990       -0.86820
F          2.14190        0.20900        1.19550
H          1.70400       -0.83710       -0.55480
C          1.13640        1.08660       -2.30160
C          3.08540        5.39580        0.69590
C          3.22000        4.16410        0.19540
C          2.38240        3.01330        0.67100
O          1.65550        2.52860       -0.40100
F          3.86600        6.40590        0.23070
H          2.35780        5.60820        1.47300
H          3.95720        3.98420       -0.58190
H          1.67670        3.33620        1.46680
H          3.07910        2.26290        1.08800
F         -0.10530        1.66740       -2.48020
F          2.05200        1.71720       -3.12330
H          1.07220        0.01850       -2.60120
