17
TSA8_9_F_CHF2_F
C          2.95340        1.85510       -0.81000
C          1.43050        1.59960       -0.56960
F          3.69090        1.16230        0.13620
H          3.26730        1.47910       -1.80780
C          0.64710        1.54420       -1.88450
C          3.23350        3.35120       -0.66390
C          2.82180        3.83190        0.73730
C          1.68330        2.97030        1.31270
O          0.80640        2.56200        0.28640
F          4.56570        3.64120       -0.89870
H          2.61910        3.89140       -1.41380
H          3.66090        3.79470        1.46550
H          1.13360        3.55190        2.08120
H          2.08570        2.07330        1.83770
F         -0.67000        1.21460       -1.62310
F          0.68630        2.76360       -2.53590
H          1.07710        0.76310       -2.54640
