17
TSA8_9_F_CCl3_Cl
C          2.03940       -0.44840       -1.99870
C          0.87990       -1.42160       -2.01870
F          1.64870        0.65620       -1.26220
H          2.91000       -0.91290       -1.48700
C          0.98630       -2.78650       -1.36470
C          2.46590       -0.01670       -3.42280
C          3.62730        0.94990       -3.39410
C          3.52010        2.18900       -2.90430
O         -0.16760       -1.07550       -2.54350
Cl         2.95190       -1.44030       -4.39190
H          1.61550        0.46630       -3.95260
H          4.58560        0.64360       -3.80360
H          2.58290        2.56200       -2.50850
H          4.38050        2.85120       -2.91510
Cl         2.28200       -3.75610       -2.10830
Cl         1.34470       -2.59550        0.37030
Cl        -0.53770       -3.70840       -1.51240
