17
TSA8_9_F_CCl3_Cl
C          1.80680       -0.16530       -0.12730
C          1.57420       -0.90670       -1.23800
F          2.06780        1.16640       -0.17490
H          1.76160       -0.59930        0.86260
C          1.22150       -2.38420       -1.16210
C          2.94870        0.84030       -5.36080
C          3.12480        0.28470       -4.15790
C          2.33100        0.71260       -2.95810
O          1.61740       -0.37860       -2.49690
Cl         3.90130        0.29880       -6.73310
H          2.21860        1.62950       -5.51150
H          3.86160       -0.50400       -4.03450
H          1.61870        1.52470       -3.21880
H          3.05800        1.08990       -2.21410
Cl         2.43640       -3.30750       -2.08150
Cl         1.14890       -3.08220        0.48560
Cl        -0.36860       -2.64070       -1.92380
