17
TSA8_9_F_CCl3_Cl
C          3.08660       -0.75180       -1.98540
C          1.56730       -0.53530       -1.67000
F          3.83580        0.08010       -1.16930
H          3.40200       -1.79550       -1.77660
C          0.75990       -1.84060       -1.52850
C          3.35310       -0.39020       -3.45070
C          2.92840        1.06200       -3.72780
C          1.73310        1.46080       -2.84720
O          0.92000        0.33370       -2.60220
Cl         5.05800       -0.64850       -3.90760
H          2.72890       -1.05590       -4.08260
H          3.73770        1.80070       -3.53970
H          1.15010        2.26190       -3.34620
H          2.08140        1.89360       -1.87930
Cl         0.78290       -2.80580       -3.02980
Cl         1.40160       -2.83060       -0.18910
Cl        -0.93540       -1.45610       -1.13670
