17
TSA8_9_F_CF3_Cl
C          3.09030        1.15200       -0.84260
C          1.54580        1.21310       -1.08400
F          3.33090        0.82840        0.48360
H          3.56200        0.36030       -1.46370
C          1.14980        0.66320       -2.45910
C          3.69400        2.52530       -1.14250
C          3.05070        3.59260       -0.23940
C          1.60360        3.21430        0.12240
O          0.99470        2.52650       -0.94780
Cl         5.46890        2.53140       -0.95980
H          3.45940        2.77550       -2.19860
H          3.59540        3.73850        0.71880
H          1.03160        4.13260        0.36760
H          1.57340        2.57990        1.03860
F         -0.22690        0.69850       -2.58640
F          1.71390        1.41930       -3.47040
F          1.56730       -0.64990       -2.58230
