21
TSA8_9_CF3_CN_CCl3
C          2.47360       -1.82320       -0.62310
C          1.38990       -1.78580        0.44020
C          2.55950       -0.41580       -1.27720
H          3.42670       -1.99120       -0.07920
C          1.75160       -1.87180        1.83520
C          2.22650       -3.05510       -1.57880
C          1.21960       -2.71750       -2.66310
C         -0.02980       -3.18680       -2.66810
O          0.21800       -1.62380        0.13790
C          3.50110       -3.71460       -2.19580
H          1.81370       -3.86060       -0.92620
H          1.52310       -2.05230       -3.46700
H         -0.39170       -3.83550       -1.87860
H         -0.70630       -2.89720       -3.46680
F          3.59800       -0.32920       -2.17560
F          1.37920       -0.08240       -1.92030
F          2.78100        0.52910       -0.29040
N          2.04420       -1.94290        2.95250
Cl         3.04610       -5.20810       -3.06700
Cl         4.38310       -2.69030       -3.35760
Cl         4.64450       -4.21410       -0.91560
