19
TSA8_9_H_NO2_CHF2
C          3.15600        0.78850        1.67860
C          1.67010        1.00830        1.45670
H          3.59790        0.35110        0.75660
H          3.65820        1.76240        1.85390
N          1.11230        2.25050        1.53010
C          3.44720       -0.12160        2.89310
C          2.91340       -1.52060        2.66950
C          1.99790       -2.06870        3.47410
O          0.96360        0.04410        1.19420
C          4.95950       -0.19080        3.15930
H          2.97320        0.33790        3.79040
H          3.28730       -2.10010        1.82970
H          1.59860       -1.52550        4.32470
H          1.64170       -3.07550        3.28130
O         -0.05900        2.39350        1.34580
O          1.84810        3.30720        1.80430
F          5.20980       -0.96080        4.28200
F          5.62880       -0.73660        2.07670
H          5.35600        0.83040        3.34490
