23
TSA8_9_Cl_CF3_Et
C          3.15280        0.02820        1.99960
C          1.68020        0.20390        1.69850
Cl         4.00960       -0.17840        0.43950
H          3.51950        0.96620        2.47070
C          0.97760        1.48170        2.06660
C          3.38550       -1.13390        3.00870
C          3.05220       -2.48530        2.40650
C          2.06980       -3.25380        2.88750
O          1.05640       -0.69280        1.14850
C          4.79960       -1.14850        3.64760
H          2.70140       -0.93650        3.86670
H          3.62400       -2.84780        1.55790
H          1.46900       -2.93630        3.73390
H          1.86120       -4.21520        2.42950
F         -0.35680        1.42660        1.70270
F          1.06170        1.67900        3.43250
F          1.57650        2.54370        1.41470
C          5.97900       -1.41660        2.70990
H          4.80900       -1.94020        4.42920
H          4.97490       -0.17650        4.15850
H          5.86470       -2.39060        2.19170
H          6.91370       -1.45220        3.30830
H          6.10070       -0.60310        1.97110
