20
TSA8_9_CF3_CCl3_Cl
C          2.76440       -1.36820        0.18980
C          1.31340       -1.55760        0.71460
C          2.72700       -0.58200       -1.14180
H          3.33100       -0.69180        0.86490
C          1.05900       -1.43300        2.23660
C          3.52410       -2.71930        0.05560
C          2.59890       -3.93500        0.15390
C          1.26060       -3.64240       -0.51390
O          0.53070       -2.57110        0.07790
Cl         4.81170       -2.87650        1.28590
H          4.03960       -2.75400       -0.92790
H          2.38790       -4.20680        1.20310
H          0.64530       -4.56190       -0.42630
H          1.40340       -3.45860       -1.59680
F          4.01780       -0.32850       -1.57320
F          2.05670       -1.26730       -2.13540
F          2.09310        0.63270       -0.94370
Cl         1.87270       -2.66830        3.22490
Cl         1.59800        0.16790        2.80830
Cl        -0.69170       -1.53460        2.55730
