20
TSA8_9_Cl_CBr3_Me
C          1.78630        0.05420       -0.14200
C          1.53850        0.67790       -1.32300
Cl         2.00270        0.87760        1.40160
H          1.81860       -1.02390       -0.07570
C          1.27770       -0.09260       -2.60640
C          2.28190        4.40570       -2.90250
C          2.99730        3.72150       -2.00060
C          2.33490        2.96780       -0.88710
O          1.48520        2.03180       -1.44810
C          2.95620        5.11520       -4.03420
H          1.19710        4.44020       -2.82960
H          4.08030        3.68850       -2.08200
H          1.75640        3.66040       -0.24080
H          3.14340        2.49190       -0.29560
Br         1.37040       -2.03820       -2.49470
Br        -0.48640        0.36570       -3.26350
Br         2.57640        0.46310       -3.93400
H          3.51460        4.38300       -4.65390
H          3.65920        5.88030       -3.64240
H          2.19450        5.61450       -4.67150
