20
TSA8_9_Cl_CBr3_Me
C          2.82790        1.69930       -2.24370
C          1.46850        1.19990       -1.64850
Cl         4.10170        1.49330       -1.00120
H          3.13520        1.08410       -3.11550
C          0.75590        0.13590       -2.50410
C          2.68490        3.17270       -2.67380
C          2.20460        4.03660       -1.49180
C          1.24540        3.24400       -0.58920
O          0.56780        2.26620       -1.34800
C          3.95060        3.74900       -3.31490
H          1.88300        3.19990       -3.44330
H          3.02810        4.42500       -0.85300
H          0.52320        3.93750       -0.11200
H          1.79970        2.75910        0.24940
Br         1.87150       -1.43790       -2.72400
Br        -0.86560       -0.43820       -1.60880
Br         0.27140        0.82200       -4.25510
H          4.24260        3.13700       -4.19450
H          4.79270        3.76250       -2.59130
H          3.76080        4.78840       -3.65750
