18
TSA8_9_CBr3_CN_H
C          1.74350       -0.01620        0.08750
C          1.38860       -0.59070        1.25160
C          1.85380       -0.68380       -1.27810
H          1.95220        1.04810        0.09470
C          1.29990        0.23230        2.44520
C         -0.55270       -4.43470        3.07730
C         -0.18310       -3.83000        1.94600
C         -0.10740       -2.33510        1.86830
O          1.09670       -1.91410        1.35000
H         -0.64560       -5.51360        3.11430
H         -0.79250       -3.85680        3.96570
H          0.02030       -4.42350        1.06000
H         -0.29450       -1.87440        2.86220
H         -0.90670       -2.02420        1.17250
Br         0.78540        0.30460       -2.55890
Br         3.69880       -0.55590       -1.82750
Br         1.31330       -2.54790       -1.42550
N          1.22650        0.88490        3.39300
