22
TSA8_9_OMe_Me_CN
C          2.17820       -1.41930       -0.95140
C          1.40150       -1.87090        0.32060
O          2.19810       -0.02490       -1.33670
H          3.22030       -1.55660       -0.59930
C          1.32700       -1.20420        1.65810
C          1.92490       -2.45430       -2.11010
C          0.59570       -2.17900       -2.74960
C         -0.56860       -2.50360       -2.17370
O          0.97170       -3.01350        0.34840
C          2.94820       -2.55420       -3.16930
H          1.94960       -3.49040       -1.71130
H          0.57030       -1.58560       -3.65960
H         -0.62840       -3.06660       -1.25690
H         -1.49700       -2.18040       -2.62020
C          1.02720        0.63030       -1.82390
H          1.22970        1.08500       -2.82780
H          0.79600        1.47860       -1.14950
H          0.10280        0.04190       -1.91340
H          1.86550       -1.85770        2.38570
H          0.26030       -1.20810        1.98520
H          1.74310       -0.18560        1.69840
N          3.68980       -2.70090       -4.03720
