22
TSA8_9_OMe_Me_CN
C          2.18940       -1.45190       -1.06880
C          0.96690       -1.56450       -0.07850
O          2.33150       -0.19580       -1.74040
H          3.13150       -1.58940       -0.49210
C          1.32770       -1.44210        1.40230
C          2.11930       -2.63620       -2.06760
C          0.71910       -2.74360       -2.66890
C         -0.34410       -2.73130       -1.54910
O          0.25280       -2.77300       -0.26740
C          3.13670       -2.62610       -3.12720
H          2.28460       -3.56710       -1.48010
H          0.51220       -1.93980       -3.40850
H         -0.98070       -3.62800       -1.67680
H         -1.03080       -1.85930       -1.63190
C          1.13480        0.53240       -1.94930
H          1.23570        1.11100       -2.89220
H          0.97200        1.24740       -1.11690
H          0.23770       -0.09080       -2.09610
H          2.00970       -2.26780        1.70270
H          0.39670       -1.53900        2.00300
H          1.79670       -0.46500        1.63250
N          3.92390       -2.65240       -3.97520
