19
TSA8_9_CN_OH_Me
C          1.61620        0.05720       -0.04640
C          1.48140        1.40150       -0.22050
C          1.79210       -0.68090        1.18210
H          1.55360       -0.56060       -0.93450
O          1.44960        1.81190       -1.49870
C          3.20830        2.75390        3.60330
C          2.68930        1.95070        2.66890
C          1.31140        2.18000        2.11680
O          1.39080        2.36320        0.75470
C          4.56270        2.49350        4.19040
H          2.64100        3.60440        3.96510
H          3.27650        1.11220        2.30860
H          0.83810        3.07460        2.59490
H          0.63680        1.32810        2.33880
N          1.93310       -1.26980        2.16870
H          1.85420        2.65620       -1.73260
H          5.34410        2.51980        3.40360
H          4.57480        1.49910        4.68710
H          4.79530        3.26510        4.95430
