18
TSA8_9_CCl3_F_CN
C          1.58610        0.12820        0.01490
C          1.23430        1.34580        0.53240
C          1.76410       -1.32650        0.46320
H          1.84080        0.20720       -1.03410
F          1.41430        2.39350       -0.31520
C          0.89780        1.41030        5.07630
C          1.15310        0.92130        3.86190
C          0.16000        0.94900        2.75350
O          0.76280        1.68850        1.76550
C          1.96630        1.45900        6.03700
H         -0.08380        1.79420        5.33310
H          2.14450        0.54420        3.62010
H         -0.79700        1.42980        3.07390
H         -0.13980       -0.04180        2.39180
Cl         1.58110       -1.81170        2.16530
Cl         0.79630       -2.46140       -0.52640
Cl         3.46200       -1.65040        0.06020
N          2.85670        1.47520        6.77510
