18
TSA8_9_CCl3_F_CN
C          2.10670        0.76570        1.76890
C          0.94970        1.43920        0.95660
C          2.23250       -0.78640        1.45820
H          3.05110        1.22950        1.40550
F          1.42700        2.59140        0.35600
C          1.92740        1.23570        3.23690
C          0.57210        0.79340        3.80200
C         -0.49060        0.80210        2.69390
O         -0.19960        1.79390        1.73090
C          3.04090        0.95590        4.15350
H          1.87810        2.34620        3.18950
H          0.56350       -0.20600        4.28820
H         -1.48120        0.99630        3.15380
H         -0.56890       -0.19050        2.19950
Cl         2.09380       -1.87260        2.86830
Cl         1.05280       -1.37520        0.23760
Cl         3.83650       -1.12530        0.74510
N          3.90180        0.75390        4.90020
