21
TSA8_9_CN_OMe_NO2
C          2.76140        0.01630       -1.23680
C          1.55760       -0.91020       -1.40730
C          2.28190        1.19390       -0.45060
H          3.45280       -0.54540       -0.59500
O          1.65040       -2.17020       -0.93440
C          3.38890        0.36550       -2.68510
C          2.69680        1.61100       -3.08340
C          1.49270        1.51830       -3.61800
O          0.54380       -0.58120       -2.01550
N          4.82990        0.56840       -2.81420
H          3.16800       -0.46870       -3.39880
H          3.03940        2.54440       -2.63970
H          1.13040        0.55500       -3.96130
H          0.85290        2.38230       -3.60960
N          1.94310        2.15350        0.10610
C          1.67530       -3.23440       -1.80340
H          1.75640       -4.17830       -1.23010
H          2.57300       -3.13220       -2.45150
H          0.76350       -3.25800       -2.43810
O          5.44820        1.08130       -1.93260
O          5.31570        0.65750       -4.04020
