19
TSA8_9_OH_CF3_OH
C          2.81240        0.88470       -0.75630
C          1.40990        0.94860       -1.32050
O          2.75900        0.29230        0.51710
H          3.39800        0.23270       -1.44910
C          1.08390        0.26950       -2.62370
C          3.57440        2.23570       -0.69210
C          2.99730        3.25820        0.26640
C          1.87090        3.93640        0.03080
O          0.52090        1.50840       -0.69790
O          4.88980        1.95120       -0.28690
H          3.60510        2.67140       -1.71950
H          3.55080        3.49190        1.17220
H          1.29940        3.79100       -0.87780
H          1.52450        4.67320        0.74870
H          3.59090       -0.23790        0.63170
F         -0.25370        0.43510       -2.93920
F          1.85330        0.81530       -3.63450
F          1.35560       -1.08270       -2.52340
H          5.46640        2.68460       -0.62870
