19
TSA8_9_Me_Br_NH2
C          1.58120       -0.71990        1.98660
C          1.07460        0.51790        1.28060
C          1.30620       -1.95900        1.11770
H          2.68530       -0.62430        2.08230
Br         2.29510        1.89520        0.76220
C          1.00610       -0.81700        3.42970
C         -0.50710       -0.93000        3.46100
C         -1.27180       -0.00110        4.04400
O         -0.11170        0.65060        1.02130
N          1.60330       -1.94220        4.15370
H          1.31720        0.11580        3.95400
H         -0.98760       -1.78870        3.00290
H         -0.83460        0.87350        4.51650
H         -2.35090       -0.11280        4.05060
H          0.21770       -2.11990        0.97420
H          1.75130       -2.86860        1.56960
H          1.77410       -1.82650        0.11840
H          1.25620       -2.85140        3.77280
H          1.31680       -1.89310        5.15880
