19
TSA8_9_Me_Br_NH2
C          1.87620        0.02410        0.06840
C          1.26300        0.50890        1.15960
C          2.05510       -1.44420       -0.19850
H          2.26170        0.71800       -0.67190
Br         1.09960        2.41990        1.33170
C          0.01850       -1.18340        5.32630
C         -0.32950       -1.11000        4.03230
C          0.02000        0.07960        3.18700
O          0.76810       -0.33270        2.10450
N         -0.32440       -2.31230        6.11080
H          0.56700       -0.36830        5.79250
H         -0.88180       -1.92520        3.57470
H          0.59200        0.82960        3.77820
H         -0.92160        0.54660        2.82670
H          1.62770       -2.07980        0.60480
H          3.13720       -1.67010       -0.29040
H          1.55080       -1.70050       -1.15290
H         -0.84150       -3.10620        5.70670
H         -0.05470       -2.34230        7.10470
