26
TSA8_9_Et_CBr3_CCl3
C          2.31820        1.37890        0.17100
C          1.16070        0.84110       -0.66540
C          2.46820        0.43280        1.39790
H          3.23130        1.27510       -0.45390
C          1.39900        0.20750       -2.02840
C          2.04860        2.90150        0.51050
C          1.82100        3.65500       -0.79090
C          0.64000        4.21470       -1.08240
O          0.02660        0.88310       -0.20830
C          3.13080        3.66470        1.33950
H          1.10980        2.95320        1.10600
H          2.63420        3.74420       -1.50340
H          0.50410        4.74720       -2.01570
H         -0.19880        4.15020       -0.39370
C          3.91430        0.23480        1.86980
H          2.16850       -0.59820        1.10300
H          1.78030        0.73880        2.21460
H          4.51710       -0.20420        1.04590
H          4.42010        1.15450        2.18910
H          3.92380       -0.47880        2.72140
Br         2.55430       -1.33990       -1.84380
Br        -0.25750       -0.39530       -2.84880
Br         2.23890        1.43870       -3.26740
Cl         4.76060        3.48960        0.62520
Cl         2.76550        5.41740        1.40940
Cl         3.14270        3.16880        3.05430
