26
TSA8_9_Et_CBr3_CCl3
C          2.34640        1.68560        0.11020
C          1.21000        1.25630       -0.90590
C          2.45800        0.68410        1.29680
H          3.28480        1.70550       -0.48330
C          1.44350       -0.05890       -1.72170
C          2.08430        3.14950        0.65150
C          1.68230        4.06730       -0.51330
C          0.54060        3.43390       -1.28190
O          1.02160        2.26340       -1.88240
C          3.26080        3.83130        1.43790
H          1.19630        3.11650        1.32230
H          2.53320        4.23860       -1.20900
H          0.22190        4.13290       -2.08250
H         -0.35100        3.24290       -0.64000
C          3.86200        0.09310        1.43380
H          1.72710       -0.13050        1.21380
H          2.12850        1.14140        2.24820
H          4.13300       -0.46390        0.51250
H          4.61490        0.89010        1.59760
H          3.88940       -0.60740        2.29470
Br         1.55550       -1.74480       -0.76200
Br        -0.06260       -0.30060       -2.92560
Br         3.03760        0.08740       -2.82540
Cl         4.76330        3.87870        0.47010
Cl         2.82980        5.51890        1.85030
Cl         3.64590        3.07510        3.00690
