22
TSA8_9_NO2_Et_F
C          1.64520        0.10870        0.17130
C          1.37360       -0.80850        1.12780
N          1.83060       -0.21100       -1.20690
H          1.73250        1.15460        0.45640
C          1.14930       -0.33490        2.56250
C          3.10840       -5.17900        0.46030
C          2.38000       -4.08840        0.21090
C          1.94810       -3.17140        1.31790
O          1.23330       -2.11800        0.78470
F          3.48540       -5.99140       -0.56110
H          3.40910       -5.42640        1.47370
H          2.09910       -3.86890       -0.81450
H          2.86270       -2.80900        1.83390
H          1.30380       -3.73780        2.02330
O          2.07840        0.66390       -1.97880
O          1.71710       -1.44310       -1.65220
C          2.11680       -0.90720        3.59380
H          0.11160       -0.59270        2.86370
H          1.24170        0.77260        2.61770
H          1.98180       -1.99940        3.71250
H          1.90470       -0.44960        4.58340
H          3.16520       -0.67410        3.31210
