21
TSA8_9_NH2_CCl3_NH2
C          2.82590       -1.29030       -0.63390
C          1.54800       -1.46340        0.17370
N          3.01540        0.11520       -1.00870
H          3.68410       -1.58840        0.00860
C          1.60100       -1.95710        1.60410
C          2.85630       -2.22310       -1.87420
C          1.79300       -1.87530       -2.89870
C          0.82260       -2.72910       -3.23610
O          0.47060       -1.19510       -0.33930
N          4.17770       -2.17540       -2.50110
H          2.69930       -3.26160       -1.50280
H          1.82070       -0.90410       -3.38340
H          0.75350       -3.71190       -2.78140
H          0.08410       -2.44080       -3.97750
H          2.18850        0.46970       -1.54160
H          3.10620        0.69230       -0.14110
Cl         2.36510       -3.56690        1.66780
Cl         2.55040       -0.82530        2.60130
Cl        -0.02910       -2.09300        2.32340
H          4.36190       -1.22560       -2.89700
H          4.22210       -2.87580       -3.27600
