21
TSA8_9_NH2_CCl3_NH2
C          2.86720       -1.42430       -0.66540
C          1.43700       -1.70410       -0.07930
N          2.92980       -0.07780       -1.24230
H          3.64100       -1.47800        0.13160
C          1.44070       -2.06490        1.41780
C          3.19840       -2.50240       -1.71520
C          2.10250       -2.58480       -2.79510
C          0.71320       -2.34910       -2.17830
O          0.72230       -2.69980       -0.81120
N          4.52630       -2.31600       -2.29880
H          3.19100       -3.47450       -1.17300
H          2.23730       -1.86740       -3.63330
H         -0.04060       -2.94920       -2.72790
H          0.39190       -1.28820       -2.29750
H          2.21580        0.05130       -1.99290
H          2.74330        0.62670       -0.49230
Cl         2.34130       -3.57810        1.71430
Cl         2.16520       -0.75280        2.38590
Cl        -0.23420       -2.28790        1.98490
H          4.55160       -1.43520       -2.86190
H          4.73770       -3.12040       -2.93310
