18
TSA8_9_F_OMe_I
C          3.29320       -0.97100        0.07370
C          2.26600       -1.44840        1.06520
F          2.75780        0.06470       -0.67370
H          4.14230       -0.56590        0.66530
O          2.55440       -1.38050        2.39090
C          3.88490       -2.05490       -0.85870
C          2.92340       -2.64140       -1.86920
C          1.94970       -3.49710       -1.54690
O          1.16770       -1.83030        0.68770
I          5.50570       -1.14950       -1.94300
H          4.34210       -2.87330       -0.26150
H          3.05000       -2.39600       -2.91970
H          1.79570       -3.82600       -0.52660
H          1.30680       -3.89880       -2.32380
C          1.68980       -1.77230        3.39060
H          2.17130       -1.60000        4.37530
H          1.45600       -2.85370        3.29080
H          0.75240       -1.17780        3.34270
