18
TSA8_9_OMe_F_Cl
C          1.43150        0.22890       -0.03320
C          0.99260       -0.93130        0.45650
O          1.60620        0.37900       -1.36730
H          1.63040        1.05600        0.64470
F          0.79950       -1.05940        1.79860
C         -1.20580       -4.36990       -1.74550
C         -1.09050       -3.31040       -0.93780
C          0.09270       -3.12840       -0.03250
O          0.73640       -1.96130       -0.38730
Cl        -2.59920       -4.53280       -2.80150
H         -0.44270       -5.14200       -1.76710
H         -1.86610       -2.54960       -0.93750
H          0.80600       -3.97420       -0.13210
H         -0.26580       -3.10070        1.01980
C          1.97140        1.57820       -1.93230
H          2.04870        1.45300       -3.03220
H          2.95530        1.90680       -1.53580
H          1.20140        2.34990       -1.71480
