18
TSA8_9_OMe_F_Cl
C          0.35780       -0.85020       -1.06990
C          1.00720       -1.10370        0.31510
O          1.31370       -0.38850       -2.00740
H         -0.46430       -0.11000       -0.91120
F          0.14230       -0.78760        1.35420
C         -0.26720       -2.14980       -1.61940
C         -0.82910       -2.95320       -0.45640
C          0.37490       -3.36940        0.42670
O          1.45880       -2.43600        0.45170
Cl        -1.51430       -1.79460       -2.84400
H          0.51600       -2.78000       -2.09910
H         -1.54020       -2.30750        0.10480
H          0.78060       -4.29620       -0.03010
H          0.03910       -3.62550        1.45400
C          1.52210        0.99860       -1.85340
H          2.28970        1.31960       -2.58700
H          1.91610        1.23990       -0.84170
H          0.59680        1.57350       -2.07900
