19
TSA8_9_CCl3_NH2_Br
C          1.70470       -1.70230       -0.45010
C          0.99400       -1.13910        0.77560
C          1.61650       -0.68680       -1.64430
H          2.78630       -1.78390       -0.20170
N          1.68940       -0.83680        1.89750
C          1.22660       -3.17680       -0.67530
C         -0.22490       -3.32310       -1.06320
C         -1.11040       -3.93060       -0.26600
O         -0.21520       -0.95870        0.75680
Br         2.30600       -4.17910       -1.94350
H          1.39930       -3.70450        0.29010
H         -0.56630       -2.94330       -2.01830
H         -0.81650       -4.33490        0.69790
H         -2.14540       -4.02560       -0.57730
Cl        -0.04840       -0.33430       -2.19030
Cl         2.32760        0.87440       -1.13940
Cl         2.55950       -1.19660       -3.06840
H          1.20560       -0.45770        2.72500
H          2.70920       -0.97890        1.94580
