19
TSA8_9_H_CN_OMe
C          2.50720       -0.85230       -0.81670
C          1.99580       -1.92910        0.10770
H          1.89830        0.06630       -0.66360
H          3.54180       -0.62210       -0.47840
C          1.79850       -1.61310        1.50110
C          2.51210       -1.14150       -2.33800
C          1.08780       -1.15110       -2.88700
C          0.17360       -2.09480       -2.64620
O          1.86940       -3.08550       -0.26220
O          3.22720       -0.06510       -2.92940
H          3.04720       -2.10020       -2.54240
H          0.79310       -0.33730       -3.54290
H          0.37020       -2.96070       -2.03700
H         -0.80940       -2.00590       -3.09570
N          1.63690       -1.34450        2.61290
C          3.47560       -0.26650       -4.30940
H          4.45080       -0.77020       -4.46920
H          3.50910        0.73370       -4.79020
H          2.67420       -0.82300       -4.84280
