19
TSA8_9_H_CN_OMe
C          2.37700       -0.65540       -1.02790
C          1.35110       -1.50450       -0.22780
H          1.89330        0.31750       -1.26590
H          3.30100       -0.45020       -0.44530
C          1.66010       -1.70010        1.19460
C          2.71960       -1.37100       -2.34670
C          1.39080       -1.74310       -3.06310
C          0.40340       -2.40460       -2.07090
O          1.04840       -2.73330       -0.85760
O          3.73270       -0.65240       -3.05550
H          3.19130       -2.34240       -2.07580
H          0.86340       -0.84860       -3.45860
H         -0.03290       -3.31380       -2.53020
H         -0.46360       -1.72900       -1.86580
N          1.87790       -1.86810        2.31910
C          3.43340       -0.14300       -4.34320
H          4.16800       -0.55250       -5.06820
H          3.55070        0.95970       -4.31740
H          2.44230       -0.36430       -4.76620
