22
TSA8_9_Et_F_NO2
C          2.30270       -1.69550        0.16370
C          1.10650       -1.58620        1.10010
C          2.22200       -0.49290       -0.82520
H          3.17970       -1.55260        0.83310
F          0.91670       -0.43750        1.80210
C          2.43900       -3.13090       -0.47740
C          1.65000       -3.33240       -1.76170
C          0.32130       -3.21360       -1.85000
O          0.33350       -2.51380        1.28040
N          3.83710       -3.48850       -0.69310
H          2.06720       -3.86880        0.26790
H          2.19020       -3.60260       -2.66470
H         -0.29440       -2.95760       -1.00110
H         -0.17050       -3.38050       -2.80300
C          3.40330       -0.29980       -1.76850
H          2.15720        0.43880       -0.22050
H          1.29460       -0.55840       -1.43420
H          4.35210       -0.23360       -1.19490
H          3.26680        0.64730       -2.33200
H          3.44340       -1.10930       -2.52110
O          4.51880       -2.90800       -1.47990
O          4.35550       -4.49950       -0.02800
