22
TSA8_9_Et_F_NO2
C          1.78490       -0.14470        0.22300
C          1.31300       -1.16200        0.98770
C          1.93230       -0.01860       -1.27490
H          2.09610        0.74290        0.76870
F          1.29100       -0.93290        2.32740
C          2.58390       -4.73570       -1.14270
C          2.23310       -3.44370       -1.00480
C          0.83100       -3.04170       -0.61820
O          0.83060       -2.37840        0.59130
N          3.90450       -5.13140       -1.49830
H          1.84180       -5.51220       -0.97700
H          2.97270       -2.66990       -1.16610
H          0.20900       -3.95350       -0.49170
H          0.31630       -2.44950       -1.39760
C          3.38020        0.29970       -1.63620
H          1.29360        0.82510       -1.61300
H          1.62760       -0.90080       -1.84440
H          3.70510        1.23980       -1.14030
H          3.46970        0.43310       -2.73510
H          4.05230       -0.52550       -1.32040
O          4.76180       -4.32140       -1.68970
O          4.18720       -6.41040       -1.61320
