17
TSA8_9_H_CCl3_H
C          1.97010        1.95860        0.72420
C          0.92000        2.64890       -0.11160
H          1.49610        1.09510        1.23740
H          2.78480        1.57240        0.07370
C          1.07250        2.76930       -1.61180
C          2.57370        2.92590        1.75180
C          3.63150        2.26010        2.59070
C          3.35350        1.23550        3.40310
O         -0.06880        3.10650        0.44340
H          3.03880        3.77800        1.20970
H          1.77980        3.32520        2.42050
H          4.65070        2.63220        2.54240
H          2.34510        0.84250        3.48660
H          4.14190        0.78480        3.99710
Cl         2.55330        3.68120       -2.00090
Cl         1.17850        1.14780       -2.34380
Cl        -0.31300        3.62120       -2.35310
