19
TSA8_9_F_CCl3_NO2
C          2.06020        2.08990       -0.61660
C          0.99060        2.12060       -1.68760
F          1.52620        1.43540        0.47910
H          2.93860        1.50550       -0.96730
C          1.16400        1.39620       -3.00760
C          2.51790        3.52060       -0.22440
C          3.52520        3.51530        0.91010
C          3.22780        3.08450        2.14110
O         -0.05230        2.71530       -1.45430
N          3.09870        4.19280       -1.37350
H          1.63090        4.09970        0.11920
H          4.52680        3.89870        0.73460
H          2.24000        2.71470        2.39190
H          3.98180        3.11430        2.92080
Cl         2.55560        2.04130       -3.91010
Cl         1.42640       -0.34130       -2.71190
Cl        -0.28150        1.56370       -4.04600
O          4.09420        3.77380       -1.88490
O          2.54400        5.29020       -1.84220
