19
TSA8_9_F_CCl3_NO2
C          2.83410        2.26010       -1.12890
C          1.43040        1.63920       -0.81360
F          3.76610        1.70660       -0.26630
H          3.15910        2.02740       -2.16470
C          0.63890        1.20180       -2.06230
C          2.77210        3.78100       -0.91060
C          2.33530        4.09280        0.53540
C          1.38230        3.00800        1.06370
O          0.61480        2.48270        0.00330
N          4.02810        4.43170       -1.23230
H          1.98110        4.17340       -1.58550
H          3.18100        4.16560        1.25340
H          0.72340        3.43810        1.84610
H          1.95280        2.18800        1.56090
Cl         0.28460        2.57650       -3.14430
Cl         1.53940       -0.03970       -2.97340
Cl        -0.90850        0.47150       -1.56190
O          5.02420        4.16370       -0.63100
O          4.07470        5.32500       -2.19710
