23
TSA8_9_CH2F_CBr3_CBr3
C          2.54790       -0.98390        1.37610
C          1.50650        0.12940        1.38930
C          2.72050       -1.47400       -0.07470
H          3.51120       -0.52020        1.67490
C          1.88010        1.53870        1.80180
C          2.17980       -2.07450        2.44980
C          0.85390       -2.74560        2.13420
C         -0.21630       -2.61400        2.92450
O          0.35670       -0.11720        1.05250
C          3.25880       -3.15950        2.76180
H          2.08070       -1.50120        3.39980
H          0.76430       -3.35490        1.24020
H         -0.17810       -2.01580        3.82910
H         -1.14550       -3.11040        2.66360
F          3.84480       -2.25940       -0.21340
H          2.87600       -0.59760       -0.73990
H          1.82100       -2.01550       -0.43400
Br         3.24730        2.24420        0.62090
Br         0.35860        2.74790        1.73120
Br         2.55540        1.54920        3.61980
Br         2.75310       -4.10680        4.38420
Br         3.47220       -4.54240        1.40630
Br         4.99520       -2.36770        3.12910
