23
TSA8_9_CH2F_CBr3_CBr3
C          2.41220       -0.98420        1.52230
C          1.22220        0.03590        1.64940
C          2.39960       -1.55970        0.09610
H          3.37030       -0.43380        1.63070
C          1.65030        1.49790        1.87650
C          2.30020       -2.02890        2.68000
C          0.89200       -2.66560        2.70840
C         -0.18690       -1.64960        2.31320
O          0.25320       -0.34670        2.61980
C          3.42480       -3.09070        2.85240
H          2.36450       -1.39760        3.59480
H          0.77250       -3.56210        2.06460
H         -1.12830       -1.87930        2.85300
H         -0.43450       -1.73040        1.22790
F          3.56210       -2.25300       -0.17160
H          2.35990       -0.72550       -0.63600
H          1.51750       -2.20930       -0.07630
Br         2.80990        2.12840        0.45220
Br         0.08260        2.63870        1.88340
Br         2.56360        1.70780        3.57770
Br         3.22540       -3.95100        4.58440
Br         3.40500       -4.53000        1.54090
Br         5.18260       -2.26430        2.84900
