18
TSA8_9_F_CCl3_OH
C          1.85220        0.05310       -0.22190
C          1.57860        0.78550       -1.32820
F          2.08830        0.62300        0.98810
H          1.86260       -1.02860       -0.24620
C          1.25550        0.14190       -2.66720
C          2.25400        4.84020       -2.17910
C          2.96050        4.02490       -1.38220
C          2.27850        3.01340       -0.50840
O          1.55390        2.14940       -1.31090
O          2.86560        5.74700       -2.97310
H          1.17010        4.77980       -2.19680
H          4.04440        4.08860       -1.36480
H          1.59170        3.53550        0.19050
H          3.06480        2.48680        0.06860
Cl         2.44900        0.70060       -3.86700
Cl         1.26590       -1.64820       -2.68960
Cl        -0.35860        0.67830       -3.19680
H          3.82880        5.84090       -3.00720
