19
TSA8_9_Br_CCl3_NO2
C          2.11000       -0.55920       -2.02250
C          0.98640       -1.56880       -2.14280
Br         1.54100        0.81190       -0.75950
H          3.01480       -1.04670       -1.59810
C          1.15530       -3.00090       -1.67620
C          2.45690        0.07680       -3.39130
C          3.54970        1.11200       -3.23880
C          3.35900        2.39730       -3.55330
O         -0.08840       -1.20150       -2.59740
N          2.89050       -0.93260       -4.33980
H          1.53550        0.56610       -3.78340
H          4.52050        0.80280       -2.86150
H          2.40450        2.74860       -3.93250
H          4.16700        3.11100       -3.42960
Cl         2.45710       -3.81470       -2.57690
Cl         1.55690       -3.02490        0.05990
Cl        -0.34140       -3.95060       -1.90570
O          3.88260       -1.56770       -4.14100
O          2.20550       -1.13190       -5.44540
