17
TSA8_9_Br_CHF2_H
C          3.03840       -1.46760        0.70770
C          1.55660       -1.56950        0.98290
Br         3.38690        0.06980       -0.43110
H          3.55150       -1.27050        1.67460
C          1.04730       -1.49270        2.39520
C          3.69750       -2.74210        0.13100
C          3.26220       -3.15320       -1.25530
C          2.07470       -3.70450       -1.51990
O          0.76180       -1.66780        0.06090
H          4.78530       -2.52050        0.07050
H          3.57590       -3.59840        0.82930
H          3.96790       -3.03380       -2.07310
H          1.34980       -3.89150       -0.73690
H          1.82930       -3.99780       -2.53560
F         -0.33430       -1.57260        2.42440
F          1.57440       -2.53440        3.13610
H          1.35920       -0.52860        2.84850
