17
TSA8_9_F_Cl_CCl3
C          3.17800        1.04030       -1.24580
C          1.68860        0.80600       -1.22170
F          3.76410        0.29150       -0.23950
H          3.55170        0.66360       -2.22000
Cl         0.88440        0.10290       -2.61660
C          3.54160        2.54600       -1.11230
C          3.09450        3.08110        0.23620
C          2.18750        4.05690        0.34750
O          1.02890        1.08170       -0.23220
C          5.05810        2.82740       -1.32350
H          3.00420        3.08540       -1.92620
H          3.52180        2.66110        1.14220
H          1.73380        4.50600       -0.53030
H          1.89330        4.41340        1.32940
Cl         5.37460        4.58440       -1.24040
Cl         6.09260        2.03020       -0.10140
Cl         5.59270        2.28910       -2.94100
