17
TSA8_9_H_F_Me
C          3.17860        0.77990       -1.74830
C          1.70250        0.49110       -1.63080
H          3.69950        0.32360       -0.87830
H          3.53740        0.27550       -2.67170
F          1.28700       -0.79960       -1.55540
C          3.53000        2.28220       -1.82790
C          3.14120        2.99330       -0.55040
C          2.26990        4.00670       -0.53900
O          0.87240        1.38690       -1.61460
C          5.03430        2.46010       -2.05660
H          3.00130        2.72550       -2.70220
H          3.58610        2.67280        0.38780
H          1.80390        4.35800       -1.45440
H          2.01680        4.49270        0.39750
H          5.34050        1.96220       -3.00150
H          5.61660        2.02140       -1.21730
H          5.28290        3.54020       -2.13850
