23
TSA8_9_OMe_CCl3_NH2
C          1.42840       -0.08320       -0.07210
C          1.37270       -1.22250       -0.78730
O          1.40250        1.11480       -0.70100
H          1.49160       -0.10170        1.01080
C          1.40750       -2.60760       -0.15580
C         -0.04710        0.19070       -4.97210
C          0.06760        0.20740       -3.63620
C          0.09910       -1.05820       -2.82850
O          1.29420       -1.14160       -2.14200
N         -0.08190        1.39780       -5.71340
H         -0.11740       -0.75310       -5.50470
H          0.13540        1.15620       -3.11300
H          0.00670       -1.95200       -3.48210
H         -0.76920       -1.05190       -2.13160
C          1.39670        2.30670       -0.01250
H          1.38840        3.14640       -0.73720
H          2.30470        2.38770        0.62310
H          0.48800        2.37360        0.62420
Cl         2.79320       -3.50580       -0.82070
Cl         1.56070       -2.62330        1.62790
Cl        -0.08330       -3.49270       -0.56570
H         -0.02160        2.31390       -5.24570
H         -0.17270        1.36420       -6.73920
