23
TSA8_9_Br_CBr3_Et
C          3.24550       -0.10580       -2.80260
C          1.74840       -0.50100       -2.82330
Br         3.84360        0.39510       -1.00720
H          3.90790       -0.94270       -3.07800
C          1.37650       -1.88760       -2.25650
C          3.43760        1.08920       -3.78150
C          2.14320        1.94160       -3.87150
C          1.32000        1.84580       -2.58100
O          0.92200        0.51330       -2.24910
C          3.81450        0.65780       -5.22270
H          4.27200        1.72030       -3.40390
H          1.47070        1.53850       -4.66360
H          0.40420        2.45720       -2.72130
H          1.88600        2.29090       -1.73670
Br         1.58280       -2.02830       -0.33170
Br        -0.48690       -2.23380       -2.66160
Br         2.40340       -3.29890       -3.10670
C          5.17630       -0.03470       -5.33390
H          3.86970        1.57140       -5.85550
H          3.02980       -0.00950       -5.64250
H          5.97650        0.62490       -4.93630
H          5.39090       -0.24440       -6.40300
H          5.20050       -1.00320       -4.79900
