16
TSA8_9_H_NH2_F
C          2.89590        0.44910       -1.60470
C          1.38860        0.47640       -1.70940
H          3.17930        0.16850       -0.56720
H          3.27840       -0.34930       -2.27720
N          0.74640       -0.31270       -2.60320
C          3.62820        1.74530       -2.01670
C          3.36230        2.94710       -1.14090
C          2.21610        3.63320       -1.16250
O          0.73560        1.18160       -0.95670
F          4.98510        1.47770       -1.94990
H          3.39560        2.00220       -3.07310
H          4.15910        3.30370       -0.49390
H          1.40240        3.35820       -1.82320
H          2.09540        4.50300       -0.52470
H         -0.28290       -0.30560       -2.66100
H          1.27020       -0.93100       -3.23970
