16
TSA8_9_H_NH2_F
C          2.18070        0.05920       -0.37060
C          1.50060        0.50030       -1.44370
H          2.65030        0.73490        0.33650
H          2.27190       -1.00480       -0.17480
N          0.90220       -0.44080       -2.32000
C          3.74940        2.87710       -3.05850
C          3.50710        2.82180       -1.74280
C          2.09840        2.87670       -1.21670
O          1.35440        1.82710       -1.72760
F          5.02530        2.82690       -3.52130
H          2.93330        2.96340       -3.76820
H          4.33600        2.73710       -1.04760
H          1.64120        3.83190       -1.54760
H          2.08480        2.86760       -0.10670
H          0.39730       -0.11200       -3.15610
H          0.98820       -1.45410       -2.15800
