16
TSA8_9_H_NH2_F
C          2.96710        0.61020       -1.26520
C          1.41710        0.75040       -1.34740
H          3.31370        0.83980       -0.23380
H          3.28550       -0.42910       -1.49780
N          0.90330       -0.08240       -2.42970
C          3.58700        1.62740       -2.21770
C          3.17820        3.04770       -1.79170
C          1.84760        3.04130       -1.01600
O          0.95630        2.09060       -1.55660
F          4.96570        1.51540       -2.24730
H          3.19060        1.42790       -3.23680
H          3.93430        3.52110       -1.12780
H          1.39690        4.05380       -1.05310
H          2.01580        2.81560        0.06230
H         -0.13510        0.02910       -2.46410
H          1.08970       -1.08300       -2.19180
