19
TSA8_9_NO2_Br_CCl3
C          1.95090       -0.02920        0.09670
C          1.47190       -0.11880        1.37080
N          1.91750       -0.97160       -0.97840
H          2.42830        0.91920       -0.14410
Br         1.72340        1.44210        2.45350
C          1.79570       -4.57920        1.39380
C          1.83820       -3.25600        1.62450
C          0.56640       -2.45710        1.72630
O          0.83200       -1.13810        2.02160
C          3.00790       -5.47730        1.28620
H          0.82300       -5.05220        1.27680
H          2.78290       -2.73720        1.74660
H         -0.02200       -2.87560        2.57010
H         -0.08780       -2.53760        0.83760
O          2.41130       -0.66130       -2.01950
O          1.32450       -2.13520       -0.89600
Cl         2.87980       -6.75150        2.52190
Cl         3.00780       -6.24400       -0.31950
Cl         4.57700       -4.64800        1.50610
