17
TSA8_9_Cl_CHF2_H
C          1.97540        0.30860        0.03000
C          1.45150        1.41260        0.60250
Cl         2.34380       -1.17030        0.90960
H          2.15710        0.28670       -1.04020
C          1.10260        2.60490       -0.24700
C          4.33710        2.59260        2.71430
C          3.01410        2.66480        2.88150
C          2.14490        1.43820        2.93830
O          1.19090        1.48890        1.93660
H          4.92610        3.50370        2.67710
H          4.84040        1.63730        2.61150
H          2.54540        3.63930        2.97780
H          1.62630        1.43450        3.91900
H          2.74600        0.51060        2.87790
F         -0.24650        2.87810       -0.12590
F          1.82580        3.70230        0.18110
H          1.33310        2.43180       -1.32020
