17
TSA8_9_Cl_CHF2_H
C          2.92530        0.99600        0.71820
C          1.44450        1.43140        0.77670
Cl         3.04830       -0.72260        1.20820
H          3.31910        1.01680       -0.32080
C          1.14040        2.71940        0.00190
C          3.78560        1.89200        1.62140
C          3.05470        2.29910        2.91270
C          1.80830        1.44150        3.16210
O          0.87100        1.48250        2.08810
H          4.03760        2.83280        1.08540
H          4.74910        1.38540        1.84100
H          2.70150        3.34870        2.82000
H          1.30980        1.83800        4.07110
H          2.08290        0.39380        3.39630
F         -0.22770        2.91300       -0.04340
F          1.72770        3.82250        0.59060
H          1.51380        2.62390       -1.03920
