23
TSA8_9_CF3_Et_Br
C          1.83190       -0.13410       -0.04140
C          1.38090       -1.22180       -0.71250
C          1.95360        1.26920       -0.58420
H          2.12450       -0.25100        0.99860
C          1.25040       -2.54530        0.00770
C          4.09970       -2.15600       -3.22740
C          3.29470       -1.17200       -2.81500
C          1.81700       -1.15740       -3.13810
O          0.99320       -1.16650       -2.01630
Br         5.96080       -2.12230       -2.79390
H          3.71530       -2.98770       -3.80990
H          3.71480       -0.35610       -2.23790
H          1.54910       -2.03540       -3.76400
H          1.59950       -0.25040       -3.73830
F          3.27630        1.66470       -0.52170
F          1.50990        1.39130       -1.88490
F          1.19980        2.11430        0.20770
C          2.10510       -3.62610       -0.64550
H          0.18530       -2.86030       -0.01750
H          1.55520       -2.45940        1.07410
H          1.79780       -3.78210       -1.70130
H          1.97470       -4.58310       -0.09750
H          3.17760       -3.33970       -0.61090
