23
TSA8_9_CF3_Et_Br
C          2.82230       -0.68250       -0.68600
C          1.39850       -1.26500       -0.83150
C          2.70440        0.84760       -0.45790
H          3.30190       -1.09000        0.23110
C          1.05960       -2.62790       -0.18930
C          3.65560       -1.11610       -1.92090
C          2.92430       -0.77440       -3.21490
C          1.52490       -1.40270       -3.18110
O          0.75870       -0.97180       -2.06840
Br         5.47050       -0.42270       -1.94850
H          3.77030       -2.21740       -1.90660
H          2.85830        0.32110       -3.36420
H          1.58460       -2.50470       -3.21960
H          0.99580       -1.09780       -4.10760
F          3.94880        1.41850       -0.27220
F          2.06980        1.48810       -1.50570
F          1.96450        1.07470        0.68990
C          1.87640       -3.83080       -0.65820
H         -0.02130       -2.83150       -0.34320
H          1.22780       -2.52670        0.90420
H          1.73340       -4.04070       -1.73250
H          1.54180       -4.73060       -0.10020
H          2.95200       -3.68370       -0.43450
