19
TSA8_9_CF3_NH2_F
C          1.93530       -0.05840        0.02700
C          1.30560       -0.54020        1.11990
C          2.09040       -0.78550       -1.28700
H          2.36300        0.93980        0.07130
N          1.22340        0.28120        2.28320
C         -0.18930       -4.73250        2.54730
C         -0.43520       -3.71720        1.71090
C         -0.08410       -2.29960        2.06270
O          0.75670       -1.78500        1.09910
F         -0.52180       -6.00110        2.19400
H          0.27120       -4.56060        3.51530
H         -0.90400       -3.91940        0.75270
H          0.40420       -2.26450        3.06100
H         -1.01860       -1.69970        2.09100
F          3.43580       -0.90700       -1.57720
F          1.52360       -2.04710       -1.27880
F          1.48490       -0.03830       -2.28000
H          0.75610       -0.04140        3.14070
H          1.64380        1.22220        2.29590
