18
TSA8_9_CN_I_CHF2
C          1.66370       -0.09900       -0.06240
C          1.44660       -0.55920       -1.31730
C          1.86480        1.27740        0.34570
H          1.67200       -0.81460        0.75020
I          1.24230       -2.64280       -1.53690
C          2.66380        3.50370       -2.65570
C          2.54290        2.17470       -2.60590
C          1.18720        1.54640       -2.57590
O          1.30530        0.17630       -2.46070
C          4.00190        4.17190       -2.69040
H          1.76920        4.11910       -2.66520
H          3.42330        1.53670       -2.58330
H          0.65860        1.79080       -3.52610
H          0.55250        1.94530       -1.75810
N          2.02830        2.36410        0.70900
F          4.73220        3.84390       -1.56220
F          4.69550        3.78190       -3.82130
H          3.85270        5.27030       -2.71840
