18
TSA8_9_CN_I_CHF2
C          2.46600        1.25200       -0.93240
C          1.28050        0.31090       -1.26090
C          2.29950        1.62090        0.48580
H          3.41530        0.70290       -1.10350
I          1.64600       -1.63350       -0.42160
C          2.44240        2.54320       -1.81200
C          2.02610        2.22380       -3.25230
C          0.75820        1.38770       -3.20440
O          1.08500        0.13730       -2.64510
C          3.78950        3.29870       -1.84170
H          1.65720        3.22240       -1.41030
H          2.80540        1.63130       -3.78390
H          0.37840        1.23510       -4.23360
H         -0.05230        1.90830       -2.63670
N          2.10760        1.94050        1.58230
F          4.24240        3.57870       -0.56670
F          4.75610        2.56110       -2.50850
H          3.65580        4.25730       -2.38900
