19
TSA8_9_NH2_Cl_CBr3
C          3.01390       -1.23640        0.53410
C          1.62180       -0.87450        1.00880
N          3.21940       -0.76310       -0.83730
H          3.72160       -0.69210        1.19330
Cl         1.41410        0.20530        2.37920
C          3.29550       -2.76730        0.68690
C          2.39240       -3.58940       -0.21750
C          1.48530       -4.44230        0.27020
O          0.63290       -1.31470        0.44460
C          4.78640       -3.16280        0.46120
H          3.07510       -3.01840        1.75010
H          2.48190       -3.49220       -1.29450
H          1.35670       -4.57800        1.33840
H          0.86040       -5.01330       -0.40970
H          3.12260        0.27860       -0.86240
H          2.49950       -1.16570       -1.48020
Br         5.03710       -5.05700        0.82720
Br         5.42760       -2.84190       -1.34880
Br         5.96540       -2.22380        1.69020
