19
TSA8_9_NH2_Cl_CBr3
C          1.76310       -0.04870        0.17140
C          1.42160       -0.77170        1.26990
N          2.04180       -0.54530       -1.13000
H          1.81650        1.02950        0.28990
Cl         1.09090        0.14530        2.73260
C          3.90350       -4.24450        0.85860
C          3.16990       -3.20560        0.42780
C          1.66880       -3.17230        0.57300
O          1.29260       -2.12700        1.39200
C          5.40450       -4.25960        0.72960
H          3.40870       -5.09510        1.31940
H          3.67250       -2.35850       -0.02620
H          1.31760       -4.11110        1.05160
H          1.14260       -3.12810       -0.39830
H          2.28580        0.12900       -1.86950
H          1.99180       -1.52710       -1.40370
Br         6.11570       -5.90570        1.46440
Br         5.93300       -4.14540       -1.13330
Br         6.18260       -2.77420        1.70710
