19
TSA8_9_NH2_Cl_CBr3
C          3.03990       -1.38910        0.52550
C          1.55380       -1.24110        0.98060
N          3.15730       -1.06080       -0.89710
H          3.67270       -0.66710        1.08530
Cl         1.40510       -0.09990        2.34280
C          3.52540       -2.83070        0.83540
C          2.56740       -3.86010        0.19730
C          1.10390       -3.39370        0.29120
O          0.94800       -2.47490        1.35020
C          5.01900       -3.13580        0.53470
H          3.40620       -2.94550        1.93650
H          2.78890       -4.10010       -0.86540
H          0.45150       -4.27680        0.44960
H          0.76260       -2.93440       -0.66550
H          2.87820       -0.06380       -1.04590
H          2.53620       -1.66460       -1.47970
Br         5.46270       -4.92670        1.14620
Br         5.48080       -3.03990       -1.35280
Br         6.18390       -1.91820        1.50170
