16
TSA8_9_CN_F_CN
C          1.54850       -0.01940       -0.11440
C          1.30230        0.06970       -1.48310
C          1.75710        1.00060        0.89580
H          1.49600       -1.00610        0.32010
F          1.26600       -1.11820       -2.13300
C          2.61210        4.17580       -1.02390
C          2.39670        3.01530       -1.64210
C          1.01220        2.47690       -1.82960
O          1.06970        1.17800       -2.26990
C          3.96640        4.58110       -0.73880
H          1.78250        4.78820       -0.66890
H          3.25510        2.43020       -1.95640
H          0.48230        3.11130       -2.55600
H          0.43130        2.49930       -0.88520
N          1.91640        1.89730        1.60950
N          5.06360        4.88270       -0.52340
