22
TSA8_9_CHF2_CHF2_NO2
C          1.87470       -0.12060        0.05800
C          1.49740       -1.19550        0.81650
C          1.89350        0.15390       -1.42890
H          2.22060        0.75320        0.60450
C          1.56910       -1.05400        2.31710
C          3.57540       -3.85040       -0.03150
C          2.78150       -3.30300       -0.97190
C          1.30300       -3.16540       -0.73770
O          1.06370       -2.42790        0.40520
N          4.98010       -3.99100       -0.20010
H          3.13030       -4.19220        0.90030
H          3.19800       -2.95200       -1.91230
H          0.87770       -4.17980       -0.58150
H          0.75260       -2.77740       -1.60440
F          3.19180        0.40100       -1.83150
F          1.35500       -0.81000       -2.23350
H          1.29410        1.07340       -1.60180
F          0.30810       -1.23300        2.85490
F          2.41660       -2.02160        2.82280
H          1.94640       -0.06080        2.64170
O          5.52090       -3.62090       -1.19990
O          5.69750       -4.52580        0.76300
