22
TSA8_9_CHF2_CHF2_NO2
C          2.73200       -1.32000        0.16710
C          1.28950       -1.52840        0.75170
C          2.66120       -0.38630       -1.06420
H          3.35870       -0.77560        0.90940
C          1.18270       -1.02690        2.19380
C          3.37000       -2.71780       -0.05240
C          2.47470       -3.61820       -0.92180
C          0.98880       -3.37510       -0.60880
O          0.84230       -2.88250        0.70450
N          4.73560       -2.68770       -0.54340
H          3.38180       -3.18380        0.96030
H          2.62840       -3.50330       -2.01630
H          0.42950       -4.32510       -0.73030
H          0.52500       -2.66810       -1.33280
F          3.92430       -0.01030       -1.47880
F          1.98700       -0.95670       -2.12610
H          2.12900        0.54550       -0.77600
F         -0.12270       -1.14520        2.63250
F          2.00780       -1.77110        3.01930
H          1.47950        0.04140        2.24750
O          4.97920       -2.32980       -1.65680
O          5.71040       -3.14680        0.21210
