25
TSA8_9_OMe_OMe_CCl3
C          1.60700       -0.15720        0.25590
C          1.62520        0.06880       -1.05990
O          1.39230        0.87490        1.10630
H          1.74890       -1.16620        0.63610
O          1.83040       -0.96820       -1.91470
C          0.23510        3.90200       -0.92420
C         -0.38870        2.77160       -1.30010
C          0.30620        1.75920       -2.16290
O          1.44090        1.33670       -1.50140
C         -0.35760        4.95690       -0.01820
H          1.24790        4.07720       -1.28010
H         -1.39700        2.54710       -0.97090
H          0.58600        2.20630       -3.13980
H         -0.39460        0.91230       -2.34330
C          1.29370        0.70870        2.46770
H          1.11670        1.69770        2.93900
H          2.23490        0.27820        2.87030
H          0.43890        0.04100        2.70770
C          1.99100       -0.83300       -3.27660
H          2.87020       -0.18910       -3.49390
H          1.08120       -0.40040       -3.73940
H          2.16660       -1.83450       -3.72030
Cl         0.70210        5.13470        1.40090
Cl        -0.40270        6.50630       -0.89090
Cl        -2.00840        4.59650        0.57000
