20
TSA8_9_OH_OMe_OH
C          3.07340       -0.83630        0.55120
C          1.67920       -0.85780        1.24630
O          2.90040       -0.96570       -0.83560
H          3.61910        0.11100        0.76830
O          1.39660        0.29720        2.01490
C          3.89640       -2.02440        1.08010
C          3.14060       -3.35650        0.90420
C          1.62110       -3.15090        1.04460
O          1.34630       -2.07390        1.91500
O          5.18460       -2.07980        0.52200
H          4.01210       -1.87160        2.17320
H          3.32450       -3.84800       -0.07570
H          1.15350       -4.08400        1.42110
H          1.15900       -2.95890        0.04630
H          2.52350       -0.10490       -1.15550
C          1.99130        0.20930        3.29130
H          1.90480        1.20000        3.78300
H          3.07700       -0.01730        3.23760
H          1.45080       -0.52310        3.92950
H          5.08240       -2.24710       -0.45040
