21
TSA8_9_CBr3_F_OMe
C          1.46060       -0.45860        0.11490
C          2.16820       -0.97850        1.14050
C          1.99900       -0.37070       -1.29230
H          0.46770       -0.06920        0.29120
F          3.43190       -1.42980        0.92340
C         -0.75730       -3.24090        3.32180
C         -0.26700       -2.38640        2.40120
C          0.35490       -1.07280        2.80250
O          1.68310       -1.05460        2.41220
O         -1.29290       -4.45400        3.01650
H         -0.72310       -2.96430        4.37130
H         -0.29190       -2.63580        1.34520
H          0.32240       -0.95650        3.90700
H         -0.20590       -0.21670        2.37530
Br         0.70950        0.51660       -2.43670
Br         3.64690        0.65540       -1.35490
Br         2.31280       -2.14590       -2.00610
C         -1.34360       -5.02600        1.76180
H         -1.82270       -6.02350        1.83980
H         -0.31490       -5.15970        1.36340
H         -1.94280       -4.39510        1.07280
