21
TSA8_9_CBr3_F_OMe
C          1.06410       -1.41940        0.74880
C          2.12000       -0.86430        1.76710
C          1.69700       -1.75700       -0.63700
H          0.32430       -0.61170        0.55580
F          3.22060       -1.69710        1.83410
C          0.33430       -2.58930        1.45220
C         -0.29240       -2.09350        2.77470
C          0.25590       -0.72880        3.22100
O          1.65870       -0.66870        3.10400
O         -0.68160       -3.13480        0.62870
H          1.12550       -3.33940        1.69080
H         -1.39640       -1.99540        2.70330
H         -0.03590       -0.55970        4.27670
H         -0.20200        0.10200        2.63630
Br         0.33730       -2.14210       -1.97400
Br         2.67540       -0.22070       -1.31650
Br         2.91230       -3.27800       -0.60280
C         -0.90770       -4.49420        0.94240
H         -0.78850       -4.72270        2.02690
H         -0.23980       -5.13960        0.33430
H         -1.96110       -4.73890        0.69480
