23
TSA8_9_CF3_CF3_CBr3
C          2.07900       -0.08660       -0.21520
C          1.64000       -1.37460       -0.39760
C          1.86090        1.22520       -0.94290
H          2.72470        0.08680        0.63880
C          2.06170       -2.43950        0.59780
C          1.64090       -1.85280       -4.70330
C          1.53790       -1.17890       -3.54550
C          0.38380       -1.40030       -2.59950
O          0.83680       -1.87340       -1.38790
C          2.79550       -1.64160       -5.64720
H          0.87310       -2.57300       -4.97270
H          2.30770       -0.46200       -3.28060
H         -0.29610       -2.17180       -3.01880
H         -0.25920       -0.51520       -2.46560
F          3.08880        1.69650       -1.36780
F          1.02260        1.19520       -2.02260
F          1.33650        2.13200       -0.04020
F          0.93010       -2.99090        1.16960
F          2.74920       -3.43330       -0.07460
F          2.87280       -1.96170        1.61400
Br         2.59290       -2.77960       -7.20310
Br         2.85910        0.20220       -6.24750
Br         4.47210       -2.09120       -4.78040
