19
TSA8_9_H_CF3_NO2
C          2.11510        2.05380       -0.42950
C          1.10950        2.16630       -1.54780
H          1.58850        1.61100        0.44190
H          2.94190        1.36470       -0.71130
C          1.32210        1.46250       -2.85870
C          2.70060        3.43570       -0.06270
C          3.57230        3.35890        1.17220
C          3.07680        2.99690        2.36130
O          0.09800        2.83100       -1.37530
N          3.46890        3.96230       -1.17800
H          1.86580        4.13510        0.16930
H          4.62400        3.62380        1.10910
H          2.02830        2.74120        2.47890
H          3.72230        2.96370        3.23290
F          0.25280        1.69000       -3.70790
F          2.47570        1.93340       -3.45660
F          1.44130        0.10210       -2.64350
O          4.43180        3.38250       -1.58260
O          3.11010        5.09440       -1.74540
