19
TSA8_9_H_CF3_NO2
C          2.07900        0.24100       -0.23780
C          1.50280        1.36000       -0.72320
H          2.36640        0.14450        0.80130
H          2.26240       -0.62220       -0.86870
C          1.08550        1.45730       -2.16940
C          3.05320        4.72870       -0.17230
C          3.21940        3.63810        0.60170
C          2.02230        2.89680        1.12550
O          1.25530        2.44420        0.06550
N          4.14590        5.47710       -0.69420
H          2.04460        5.05690       -0.41120
H          4.21400        3.28930        0.86230
H          1.41610        3.60570        1.72710
H          2.32410        2.07090        1.80210
F         -0.26450        1.74000       -2.24260
F          1.78880        2.48760       -2.76520
F          1.33490        0.28920       -2.87060
O          5.27420        5.16060       -0.46490
O          3.90810        6.53510       -1.43720
