19
TSA8_9_H_CF3_NO2
C          2.99030        2.00570       -0.85120
C          1.50230        1.58620       -0.62110
H          3.62620        1.50220       -0.09050
H          3.35480        1.68260       -1.84990
C          0.71060        1.50460       -1.93240
C          3.11930        3.52010       -0.64910
C          2.67260        3.89210        0.78120
C          1.64060        2.88580        1.32050
O          0.79590        2.44320        0.28110
N          4.46750        3.98410       -0.91200
H          2.42130        4.01130       -1.36060
H          3.50880        3.91440        1.51380
H          1.04460        3.36210        2.12600
H          2.14770        2.00900        1.78770
F         -0.57710        1.07920       -1.66240
F          0.65290        2.73910       -2.55280
F          1.30290        0.59190       -2.78650
O          5.38770        3.57490       -0.26990
O          4.68560        4.85640       -1.87300
