21
TSA8_9_Me_OH_CF3
C          1.98380        1.23580        1.92230
C          0.54860        1.73920        1.83360
C          2.05780       -0.07600        1.11310
H          2.64690        1.98340        1.43370
O          0.03180        2.11120        0.64210
C          2.49990        1.03110        3.39000
C          3.87800        0.39510        3.37440
C          4.11810       -0.79570        3.93240
O         -0.17110        1.77840        2.81850
C          2.62380        2.35760        4.18660
H          1.79150        0.35790        3.92430
H          4.69780        0.92180        2.89300
H          3.32890       -1.35710        4.42260
H          5.11740       -1.21720        3.89920
H          1.41180       -0.85270        1.57660
H          3.09650       -0.46190        1.06000
H          1.72550        0.08290        0.06590
H          0.55930        2.10980       -0.16860
F          3.49820        3.22300        3.55060
F          1.41010        2.99680        4.33540
F          3.11240        2.09100        5.45460
