21
TSA8_9_Me_OH_CF3
C          1.72360        0.06960        0.07610
C          1.49360        1.18570        0.81310
C          1.91880       -1.33050        0.59030
H          1.73920        0.16790       -1.00590
O          1.25190        2.35240        0.17230
C          2.84060        1.67940        5.24380
C          2.96520        1.70180        3.90660
C          2.37670        0.63110        3.03450
O          1.46700        1.21630        2.17410
C          3.41750        2.74430        6.13790
H          2.30160        0.86490        5.72010
H          3.50140        2.50890        3.41630
H          1.85650       -0.13880        3.64470
H          3.21600        0.15700        2.48150
H          1.79970       -1.43490        1.68150
H          2.92330       -1.69550        0.29220
H          1.15120       -1.98410        0.12620
H          1.24180        2.43290       -0.79260
F          4.07530        3.72740        5.41780
F          2.39440        3.33020        6.85890
F          4.31130        2.16180        7.01620
