20
TSA8_9_I_Me_CCl3
C          2.72380        2.13890       -1.24300
C          1.35230        1.66290       -0.65680
I          4.30540        1.31670       -0.02540
H          2.88760        1.66400       -2.23370
C          0.39170        1.25660       -1.77460
C          2.68980        3.68330       -1.36300
C          2.44690        4.30450        0.02970
C          1.60390        3.37840        0.92240
O          0.68620        2.64120        0.14720
C          3.85640        4.36520       -2.13250
H          1.77830        3.89740       -1.96510
H          3.37760        4.54350        0.58680
H          1.06580        3.98990        1.67550
H          2.24270        2.68110        1.50720
H          0.16000        2.12410       -2.42800
H         -0.55360        0.87800       -1.33200
H          0.83690        0.44460       -2.38740
Cl         3.50170        6.10370       -2.33640
Cl         5.43900        4.24440       -1.31540
Cl         4.02110        3.67180       -3.76910
