25
TSA8_9_CHF2_Et_NH2
C          1.93700       -0.17120        0.01150
C          1.50600       -1.44180        0.28760
C          1.94640        0.69610       -1.22980
H          2.36470        0.37770        0.84670
C          1.64600       -1.93400        1.71260
C          2.72560       -3.68490       -3.13010
C          2.28580       -2.58640       -2.50000
C          0.89310       -2.50000       -1.92710
O          0.95180       -2.36570       -0.55810
N          4.04490       -3.74810       -3.64330
H          2.07540       -4.54680       -3.24920
H          2.95550       -1.74070       -2.38570
H          0.34220       -3.44140       -2.13860
H          0.27150       -1.71300       -2.38300
F          3.25310        1.02740       -1.53480
F          1.35570        0.17720       -2.34920
H          1.39950        1.63050       -0.98770
C          2.54200       -3.16970        1.76830
H          0.63890       -2.19510        2.10260
H          2.07970       -1.16450        2.38800
H          2.11590       -3.99080        1.15260
H          2.62510       -3.52450        2.81700
H          3.55800       -2.92340        1.39190
H          4.69480       -2.95410       -3.54430
H          4.36860       -4.60360       -4.11640
