25
TSA8_9_CHF2_Et_NH2
C          2.67050       -1.53720       -0.87890
C          1.33760       -1.86770       -0.12250
C          2.59410       -0.11490       -1.47680
H          3.51820       -1.50550       -0.16020
C          1.52030       -2.05260        1.39200
C          2.94810       -2.67680       -1.88980
C          1.74110       -2.92890       -2.81240
C          0.42060       -2.76490       -2.03970
O          0.63010       -2.98240       -0.66150
N          4.18660       -2.49560       -2.64680
H          3.06380       -3.59510       -1.27060
H          1.70770       -2.28130       -3.71480
H         -0.32720       -3.48230       -2.43510
H         -0.02540       -1.75700       -2.20190
F          3.80940        0.25580       -2.02210
F          1.61240        0.00040       -2.44210
H          2.36560        0.60560       -0.66240
C          2.33290       -3.30310        1.74160
H          0.51580       -2.14500        1.85760
H          2.01550       -1.15410        1.81850
H          1.83600       -4.21330        1.34400
H          2.41110       -3.39810        2.84470
H          3.36000       -3.24520        1.32670
H          4.06840       -1.73560       -3.35310
H          4.39740       -3.37760       -3.16750
