21
TSA8_9_CCl3_I_OMe
C          1.61840        0.14480       -0.11220
C          1.60800       -0.96060        0.65580
C          1.56330        0.22240       -1.62740
H          1.70200        1.09910        0.39980
I          1.75980       -0.68250        2.76230
C          4.21260       -3.39950        1.83250
C          3.48410       -3.32380        0.70470
C          1.98170       -3.35710        0.70710
O          1.51760       -2.20170        0.11360
O          5.57230       -3.33170        1.84300
H          3.70510       -3.50940        2.78570
H          3.96770       -3.21470       -0.26060
H          1.54910       -3.48150        1.72380
H          1.66060       -4.22430        0.09380
Cl         1.40680       -1.32760       -2.50530
Cl         0.18910        1.24990       -2.09600
Cl         3.06040        1.00420       -2.18880
C          6.37710       -3.11500        0.74100
H          7.43840       -3.09650        1.06110
H          6.13230       -2.13520        0.27570
H          6.24420       -3.93050       -0.00160
