21
TSA8_9_F_OMe_CBr3
C          1.50500       -0.16050       -0.28940
C          1.80240        1.04440       -0.80400
F          1.27910       -0.29670        1.04430
H          1.43930       -1.04630       -0.91070
O          2.05000        1.22740       -2.13460
C          4.59880        4.01380       -0.47420
C          3.52840        3.73170        0.28920
C          2.20180        3.39340       -0.32460
O          1.87660        2.10200        0.04480
C          5.98040        4.32000        0.05340
H          4.48650        4.00740       -1.55570
H          3.59410        3.70960        1.37040
H          2.24110        3.50590       -1.43060
H          1.42360        4.09210        0.04790
C          2.09570        0.24650       -3.10320
H          2.32110        0.71690       -4.08240
H          1.11660       -0.27220       -3.17530
H          2.90060       -0.48210       -2.86810
Br         6.52350        6.05660       -0.60240
Br         6.15680        4.32640        1.99320
Br         7.20000        2.98980       -0.64690
