21
TSA8_9_CHF2_F_OMe
C          2.64640       -0.54130       -1.48270
C          1.30310       -1.22790       -1.38510
C          2.58010        0.84350       -0.80830
H          3.36650       -1.13800       -0.87800
F          1.18010       -2.36570       -0.65150
C          3.19800       -0.57390       -2.94270
C          2.36550        0.20260       -3.95430
C          2.35370        1.53700       -4.01410
O          0.32500       -0.77850       -1.96080
O          3.26770       -1.94240       -3.32130
H          4.22750       -0.14620       -2.91500
H          1.79610       -0.34540       -4.69830
H          1.76210        2.03880       -4.77310
H          2.94110        2.13990       -3.33100
F          3.80830        1.47660       -0.87600
F          1.60340        1.65210       -1.35950
H          2.32040        0.70650        0.26370
C          4.01570       -2.12750       -4.50930
H          4.82010       -1.37280       -4.66060
H          3.33300       -2.13490       -5.38500
H          4.52080       -3.11380       -4.45530
