21
TSA8_9_CHF2_F_OMe
C          2.57850       -0.54060       -1.53360
C          1.03960       -0.46520       -1.60330
C          3.12530        0.66820       -0.74580
H          2.85060       -1.43410       -0.92820
F          0.47590       -1.66870       -1.99560
C          3.20550       -0.66310       -2.95950
C          2.13750       -0.46280       -4.04980
C          1.22650        0.71660       -3.67840
O          0.56410        0.59960       -2.41710
O          3.79730       -1.94510       -3.09660
H          3.97150        0.14250       -3.06020
H          1.50970       -1.37370       -4.15070
H          0.45790        0.81410       -4.47300
H          1.83200        1.64690       -3.67880
F          4.49450        0.55060       -0.58480
F          2.84940        1.86450       -1.38370
H          2.66040        0.69320        0.26340
C          4.73550       -1.95330       -4.15200
H          5.55610       -1.22330       -3.97760
H          4.23990       -1.78590       -5.13270
H          5.20340       -2.95840       -4.19200
