20
TSA8_9_CBr3_NH2_CN
C          1.59560        0.03010       -0.02990
C          1.40460        0.64980       -1.34420
C          1.68480        0.41250        1.41070
H          1.48530       -1.04640       -0.11390
N          1.76180       -0.25180       -2.37920
C          1.23470        5.02710       -1.58290
C          1.36390        3.86600       -0.93350
C          0.28500        2.79420       -0.99390
O          0.65860        1.75550       -1.83140
C          2.38760        5.89210       -1.74180
H          0.30730        5.27390       -2.09750
H          2.30510        3.68590       -0.44020
H         -0.61130        3.23100       -1.44590
H         -0.08010        2.43000       -0.01730
Br         0.71870       -0.68160        2.67060
Br         3.54030       -0.10540        1.71070
Br         1.49770        2.23920        2.03120
H          2.01790        0.21960       -3.26990
H          0.91600       -0.80590       -2.56730
N          3.28930        6.60530       -1.89000
