20
TSA8_9_CBr3_NH2_CN
C          2.08880        1.66630       -0.68350
C          0.87170        0.90430       -1.31160
C          2.20790        1.39710        0.87630
H          3.00280        1.21500       -1.13040
N          1.32020        0.07650       -2.42820
C          2.00560        3.12330       -1.22100
C          0.68520        3.79610       -0.82590
C         -0.44510        2.75740       -0.78630
O         -0.20840        1.74060       -1.73750
C          3.17060        3.98780       -0.99810
H          1.95160        3.02140       -2.32850
H          0.69920        4.34590        0.13840
H         -1.40730        3.26690       -0.99930
H         -0.54960        2.30970        0.22850
Br         1.00570       -0.00740        1.52450
Br         3.98590        0.72830        1.29220
Br         1.94250        2.90970        2.06580
H          1.63160        0.68950       -3.21660
H          0.52410       -0.51720       -2.74890
N          4.06910        4.70070       -0.84630
