18
TSA8_9_CHF2_F_CN
C          1.54840       -0.01190       -0.04520
C          1.22990       -0.42920       -1.42430
C          1.70590        1.27570        0.64150
H          1.47620       -0.84790        0.62000
F          1.37890       -1.77260       -1.61880
C          1.49900        3.12470       -4.07100
C          1.54560        2.47220       -2.90910
C          0.43710        1.55700       -2.49990
O          0.93410        0.27140       -2.59680
C          2.72680        3.66030       -4.58720
H          0.59740        3.14500       -4.67830
H          2.45670        2.47820       -2.32030
H         -0.39170        1.61520       -3.21300
H         -0.04200        1.76800       -1.52380
F          3.06860        1.20450        0.79330
F          1.38860        2.45530        0.00970
H          1.25450        1.31230        1.65240
N          3.73280        4.08070       -4.97100
