18
TSA8_9_CHF2_F_CN
C          2.21730        0.85780       -1.58260
C          0.94340       -0.03760       -1.67340
C          2.26060        1.56780       -0.20620
H          3.10650        0.18750       -1.59750
F          1.32310       -1.33710       -1.96320
C          2.24350        1.76590       -2.83890
C          0.95500        2.59390       -2.94240
C         -0.26110        1.75640       -2.50690
O          0.00780        0.38060       -2.66440
C          3.43570        2.60390       -3.02160
H          2.23530        1.07330       -3.70960
H          0.96630        3.54060       -2.35750
H         -1.13690        2.04780       -3.12120
H         -0.55230        1.96230       -1.45220
F          3.51910        2.08550        0.03600
F          1.32970        2.58120       -0.08570
H          2.05030        0.81800        0.58920
N          4.35780        3.27910       -3.20460
