19
TSA8_9_I_CCl3_NH2
C          1.72980       -0.01960       -0.17450
C          1.53770       -0.19740       -1.50720
I          1.99360        1.81950        0.86010
H          1.71190       -0.85960        0.50660
C          1.26860       -1.56970       -2.10670
C          2.30650        2.12950       -4.90130
C          3.04090        1.99010       -3.78940
C          2.40060        1.91590       -2.43510
O          1.54280        0.83300       -2.39960
N          2.92120        2.19150       -6.17650
H          1.22370        2.19330       -4.83410
H          4.12340        1.92560       -3.86020
H          1.82840        2.84930       -2.24610
H          3.21420        1.81470       -1.68850
Cl         2.52980       -1.92150       -3.31470
Cl         1.23850       -2.93470       -0.94740
Cl        -0.30710       -1.53810       -2.93720
H          3.94510        2.13010       -6.27870
H          2.33900        2.29420       -7.01970
