19
TSA8_9_I_CCl3_NH2
C          2.77550        0.08580       -2.62850
C          1.35590        0.19540       -1.97430
I          4.24860        0.68270       -1.17480
H          3.02510       -0.96660       -2.88070
C          0.52890       -1.10200       -2.05510
C          2.80770        0.94290       -3.90700
C          2.41970        2.40240       -3.59870
C          1.37480        2.45980       -2.47250
O          0.58890        1.28800       -2.48350
N          4.08900        0.85540       -4.60750
H          2.02210        0.52990       -4.57710
H          3.27740        3.04290       -3.29970
H          0.73720        3.35840       -2.60150
H          1.86610        2.57890       -1.47840
Cl         0.20900       -1.57110       -3.74750
Cl         1.37050       -2.43940       -1.22650
Cl        -1.03510       -0.86680       -1.23290
H          4.84620        1.29510       -4.03850
H          4.01970        1.37500       -5.51250
