19
TSA8_9_CHF2_CN_CN
C          2.09050       -1.50800       -1.12680
C          0.83070       -1.68640       -0.19510
C          2.10530        0.00550       -1.53820
H          3.01070       -1.66610       -0.51590
C          1.20700       -2.15390        1.14510
C          1.97130       -2.63460       -2.22400
C          0.68030       -2.44840       -3.00300
C         -0.47550       -2.12470       -2.05310
O         -0.17150       -2.54100       -0.73580
C          3.02250       -3.01050       -3.18080
H          1.86220       -3.57690       -1.64220
H          0.76420       -1.66450       -3.79130
H         -1.36010       -2.67540       -2.42660
H         -0.72800       -1.04010       -2.06180
F          3.38940        0.50850       -1.61570
F          1.43160        0.29190       -2.70870
H          1.60420        0.60190       -0.73620
N          1.52200       -2.49620        2.20430
N          3.75920       -3.41820       -3.97740
