18
TSA8_9_CN_CF3_Br
C          1.66150        0.02070        0.08640
C          1.56670       -0.48920        1.34300
C          1.79580       -0.74230       -1.12280
H          1.60650        1.09340       -0.05700
C          1.38720        0.43790        2.51630
C          1.95820       -5.06690        0.75770
C          1.91000       -3.78490        0.38500
C          0.92080       -2.82660        0.97380
O          1.58400       -1.81820        1.63710
Br         3.23530       -6.24750       -0.03250
H          1.27970       -5.45770        1.51030
H          2.60180       -3.41970       -0.36590
H          0.26130       -3.33460        1.71080
H          0.26460       -2.42760        0.17730
N          1.90560       -1.32640       -2.12810
F          0.04810        0.42520        2.86190
F          2.12810       -0.00810        3.59480
F          1.76230        1.73720        2.22310
