18
TSA8_9_CN_CF3_Br
C          2.43540       -1.55950        0.47720
C          1.22490       -0.99550        1.30910
C          2.19250       -1.26650       -0.94890
H          3.40670       -1.09990        0.76780
C          1.47700        0.16920        2.27670
C          2.47090       -3.09950        0.68630
C          1.09910       -3.68770        0.33740
C         -0.01200       -2.89640        1.04500
O          0.53200       -2.01720        2.00330
Br         3.84870       -4.10220       -0.24640
H          2.66040       -3.28670        1.76540
H          0.91680       -3.65520       -0.76270
H         -0.66500       -3.62690        1.55830
H         -0.64800       -2.33470        0.32070
N          1.96940       -1.05430       -2.06530
F          0.27210        0.50300        2.87510
F          2.36780       -0.20170        3.26810
F          1.95740        1.28080        1.61310
