17
TSA8_9_I_CHF2_Br
C          2.81540        0.60140       -1.61950
C          1.47920        0.05830       -2.07450
I          2.64560        1.26060        0.41800
H          3.54750       -0.23340       -1.56250
C          1.31390       -1.40430       -2.38450
C          3.40650        1.66050       -2.58980
C          2.50690        2.84270       -2.89440
C          2.15730        3.76440       -1.99280
O          0.51680        0.80670       -2.16350
Br         3.85260        0.79360       -4.27640
H          4.36860        2.03460       -2.17870
H          2.13960        2.97070       -3.90870
H          1.51770        4.58990       -2.28810
H          2.50560        3.73000       -0.97060
F          0.00780       -1.68180       -2.74940
F          2.15540       -1.76850       -3.41820
H          1.56670       -2.00090       -1.48320
