17
TSA8_9_I_CHF2_Br
C          1.74980        0.03180       -0.17490
C          1.48810        0.06330       -1.50300
I          2.17630        1.68440        1.09150
H          1.70250       -0.91500        0.35460
C          1.11770       -1.20860       -2.21620
C          3.92330        3.38610       -3.78620
C          3.00080        2.44580       -3.56460
C          2.43750        2.21930       -2.19400
O          1.51030        1.19760       -2.25520
Br         4.62900        3.65070       -5.54330
H          4.28610        4.01020       -2.97500
H          2.65600        1.83270       -4.39310
H          1.93810        3.14800       -1.84410
H          3.28070        1.96160       -1.51910
F         -0.14030       -1.07300       -2.77190
F          2.03350       -1.44610       -3.22430
H          1.11010       -2.08510       -1.53450
