17
TSA8_9_I_CHF2_Br
C          3.17430        0.61890       -1.83700
C          1.79120        0.42440       -2.49430
I          2.99030        0.70890        0.31790
H          3.86320       -0.23290       -2.02100
C          1.17960       -0.94560       -2.19940
C          3.80360        1.91530       -2.39230
C          2.73520        2.90730       -2.89070
C          1.44750        2.76260       -2.07090
O          0.87640        1.45180       -2.11140
Br         4.98940        1.52500       -3.88620
H          4.43940        2.36950       -1.60410
H          2.44540        2.65250       -3.93490
H          0.70560        3.47850       -2.48230
H          1.64280        3.05170       -1.01740
F         -0.03170       -1.05750       -2.85630
F          2.02190       -1.94590       -2.64850
H          1.00550       -1.07550       -1.11110
