20
TSA8_9_F_Et_F
C          2.16850        0.31770       -0.27280
C          1.57180        1.47550       -0.62150
F          2.40690       -0.01480        1.02210
H          2.45400       -0.40310       -1.03230
C          1.29750        1.77360       -2.07450
C          2.88930        4.76820        0.02310
C          3.10770        3.69770        0.79370
C          1.96030        2.89240        1.33750
O          1.19050        2.41130        0.29420
F          3.93360        5.48420       -0.46650
H          1.87640        5.07680       -0.22320
H          4.12670        3.40390        1.02910
H          1.33140        3.56060        1.96470
H          2.32930        2.07980        1.98990
C         -0.18840        2.00050       -2.32340
H          1.64950        0.94960       -2.73350
H          1.85370        2.69530       -2.35040
H         -0.76390        1.08400       -2.07780
H         -0.34880        2.24720       -3.39390
H         -0.56010        2.84720       -1.70730
