20
TSA8_9_F_Et_F
C          3.00300        1.77710       -0.58050
C          1.44250        1.73610       -0.65960
F          3.44350        0.95300        0.44260
H          3.45810        1.39710       -1.52080
C          0.96600        1.95990       -2.10400
C          3.43660        3.21420       -0.29370
C          2.82860        3.69430        1.03440
C          1.52500        2.94330        1.36010
O          0.78850        2.69230        0.18400
F          4.81500        3.32970       -0.25990
H          3.04910        3.85810       -1.11170
H          3.51550        3.54410        1.89550
H          0.92160        3.54730        2.06860
H          1.73240        1.98040        1.88040
C         -0.54810        1.80450       -2.22340
H          1.44130        1.20530       -2.76730
H          1.25720        2.97400       -2.45290
H         -0.85670        0.78890       -1.89570
H         -0.85330        1.94660       -3.28160
H         -1.07110        2.56330       -1.60370
