19
TSA8_9_NH2_Cl_Me
C          1.60410       -2.55500        0.17820
C          1.30590       -1.23900        0.86530
N          1.63920       -2.37840       -1.27720
H          2.61620       -2.88330        0.50460
Cl         2.47680       -0.53310        1.96740
C          0.60920       -3.67170        0.60020
C         -0.82560       -3.34120        0.24430
C         -1.77210       -3.21420        1.18040
O          0.25910       -0.64670        0.65330
C          0.98770       -5.01340       -0.04060
H          0.70030       -3.79510        1.70350
H         -1.10190       -3.20590       -0.79700
H         -1.54280       -3.34220        2.23400
H         -2.79130       -2.97790        0.89310
H          2.39660       -1.70000       -1.52460
H          0.73220       -1.99550       -1.62760
H          0.91780       -4.95850       -1.14840
H          0.30320       -5.81240        0.31680
H          2.02520       -5.29430        0.23890
