19
TSA8_9_NH2_Cl_Me
C          2.00670       -0.17480        0.09650
C          1.18920       -0.91160        0.86200
N          2.38970       -0.58790       -1.20560
H          2.38780        0.76800        0.47760
Cl         0.76390       -0.30770        2.46730
C         -0.24830       -5.34700        0.72410
C         -0.49750       -4.10670        0.28050
C         -0.17590       -2.89180        1.10100
O          0.70240       -2.09300        0.40100
C         -0.57900       -6.54480       -0.11110
H          0.19890       -5.50130        1.70230
H         -0.94760       -3.96350       -0.69860
H          0.27560       -3.17900        2.07700
H         -1.11830       -2.33450        1.29110
H          3.01660        0.00900       -1.76370
H          2.05170       -1.47130       -1.61440
H         -0.01580       -6.50760       -1.06720
H         -1.66850       -6.56840       -0.32540
H         -0.30060       -7.47090        0.43450
