23
TSA8_9_CHF2_CH2F_Me
C          1.76070       -0.06600       -0.13420
C          1.44070       -0.34260       -1.42020
C          1.87670        1.31200        0.47260
H          1.94210       -0.89190        0.54810
C          1.30320       -1.77200       -1.87200
C          2.26620       -0.16820       -5.00300
C          2.92950        0.38070       -3.97680
C          2.24240        1.29390       -3.00080
O          1.22140        0.64670       -2.32470
C          2.96370       -1.06300       -5.97980
H          1.20810        0.03790       -5.14040
H          3.98980        0.17950       -3.84700
H          1.81610        2.15340       -3.56020
H          2.98940        1.68700       -2.27900
F          3.16990        1.50960        0.91730
F          1.53330        2.33050       -0.39630
H          1.18730        1.36980        1.34020
F          0.02310       -1.98140       -2.34940
H          1.49380       -2.49110       -1.04670
H          2.02970       -1.98180       -2.68200
H          3.37520       -1.95030       -5.45440
H          3.79080       -0.51050       -6.47400
H          2.24610       -1.40290       -6.75560
