15
TSA8_9_OH_H_F
C          1.50850       -1.31830        1.27880
C          1.33410        0.17760        1.30120
O          0.77960       -1.89060        0.22060
H          2.59600       -1.52470        1.14270
H          1.85350        0.76570        2.05090
C          1.09280       -1.98660        2.60600
C         -0.38400       -1.87990        2.91650
C         -0.99560       -0.72290        3.19130
O          0.62070        0.74160        0.48580
F          1.41650       -3.33060        2.52340
H          1.67530       -1.55310        3.44810
H         -0.97530       -2.79100        2.94110
H         -0.45780        0.21730        3.21010
H         -2.05690       -0.71440        3.41780
H          1.34320       -1.81460       -0.59370
