15
TSA8_9_OH_H_F
C          1.84070       -0.02860        0.05650
C          1.24310        0.05770        1.24680
O          1.81190       -1.18070       -0.64380
H          2.35120        0.83840       -0.35220
H          1.27650        0.99920        1.78980
C         -0.36960       -2.98250        4.36780
C         -0.67800       -2.28920        3.26710
C         -0.06740       -0.95010        2.97350
O          0.60040       -1.01140        1.77090
F         -0.94800       -4.19080        4.59280
H          0.33990       -2.59580        5.09260
H         -1.39250       -2.70260        2.56150
H          0.63970       -0.64690        3.77790
H         -0.88090       -0.19560        2.91070
H          2.23990       -1.24110       -1.50900
