15
TSA8_9_OH_H_F
C          1.53330       -1.49790        1.47230
C          1.12090       -0.02190        1.57510
O          0.99090       -2.06130        0.30540
H          2.64430       -1.59300        1.45540
H          1.61670        0.49870        2.42660
C          0.99770       -2.23790        2.70350
C         -0.50900       -2.00070        2.83070
C         -0.77180       -0.48890        2.83510
O         -0.28980        0.11320        1.64420
F          1.26410       -3.59230        2.61180
H          1.49580       -1.83920        3.61450
H         -1.04220       -2.46260        1.97120
H         -0.32490       -0.00640        3.73400
H         -1.86780       -0.32370        2.89620
H          1.59330       -1.80570       -0.44180
