23
TSA8_9_CHF2_CH2F_CCl3
C          1.73950       -0.10560       -0.05550
C          1.45250       -1.32730       -0.57600
C          1.84720        1.21920       -0.77180
H          1.88850       -0.03390        1.01910
C          1.30130       -2.50480        0.34860
C          2.51890       -2.86660       -4.79480
C          2.69460       -2.55360       -3.50120
C          2.18220       -1.27590       -2.90570
O          1.28670       -1.59060       -1.90100
C          3.04000       -4.15810       -5.37080
H          1.98740       -2.17630       -5.44470
H          3.22390       -3.24060       -2.84620
H          1.66990       -0.65620       -3.67270
H          3.05880       -0.71830       -2.50930
F          3.13960        1.69730       -0.66950
F          1.46830        1.18040       -2.09590
H          1.16280        1.93280       -0.26820
F          0.03500       -3.04080        0.20800
H          1.45390       -2.23220        1.41490
H          2.05150       -3.27660        0.07710
Cl         2.30320       -5.55260       -4.53750
Cl         4.81360       -4.24340       -5.20210
Cl         2.63440       -4.25990       -7.10250
