18
TSA8_9_Me_Cl_CN
C          1.90780        0.63010        1.80440
C          2.00240        1.99500        1.15500
C          2.40190       -0.70030        1.13190
H          0.84860        0.54780        1.55120
Cl         2.57310        2.24430       -0.48200
C          1.90420        0.64200        3.37390
C          1.04620       -0.51130        3.80930
C         -0.25930       -0.49410        3.50690
O          1.36680        2.91150        1.66140
C          3.21260        0.59430        4.04040
H          1.41670        1.57090        3.75160
H          1.48440       -1.38300        4.28090
H         -0.70000        0.37870        3.01980
H         -0.89450       -1.33590        3.72250
H          2.73020       -1.44660        1.89260
H          3.18630       -0.61120        0.35540
H          1.53220       -1.22090        0.65660
N          4.20590        0.56520        4.65060
