22
TSA8_9_Et_NH2_Cl
C          1.84630        0.08320        0.22860
C          1.47100       -0.05930        1.52500
C          1.82600       -0.94200       -0.87410
H          2.17720        1.06910       -0.08960
N          1.48740        1.09580        2.35130
C          3.48450       -3.01300        3.70760
C          3.08090       -2.37230        2.60600
C          1.66820       -2.46870        2.09670
O          1.05860       -1.22310        2.11170
Cl         5.14760       -2.87230        4.25400
H          2.79790       -3.62940        4.28010
H          3.79060       -1.76380        2.05320
H          1.06560       -3.14450        2.74120
H          1.68350       -2.93640        1.10480
C          3.23920       -1.20180       -1.38400
H          1.20900       -0.53720       -1.70460
H          1.34770       -1.88660       -0.59280
H          3.69870       -0.25690       -1.74700
H          3.20700       -1.92550       -2.22510
H          3.86870       -1.62420       -0.57220
H          1.20180        1.02430        3.33950
H          1.77650        2.01610        1.98890
