18
TSA8_9_F_NO2_NH2
C          2.68890        0.59880        0.72590
C          1.70050        1.31010       -0.21840
F          1.98600        0.14880        1.83200
H          3.13520       -0.28630        0.22390
N          2.22710        1.52380       -1.55780
C          3.78480        1.57710        1.16340
C          3.11800        2.80860        1.78440
C          2.14890        3.41330        0.76490
O          1.14410        2.48920        0.36110
N          4.70450        0.94310        2.10880
H          4.36390        1.89440        0.26720
H          2.55790        2.52620        2.70310
H          2.70870        3.81490       -0.10480
H          1.65160        4.28360        1.24120
O          2.13210        2.58620       -2.09400
O          2.65640        0.49300       -2.25270
H          4.19950        0.67890        2.98640
H          5.46070        1.62140        2.35870
