26
TSA8_9_CF3_CCl3_Et
C          2.81260       -0.37280       -1.85650
C          1.49180       -1.05250       -2.22720
C          2.58940        0.57280       -0.64930
H          3.51830       -1.14990       -1.49740
C          1.27990       -2.55070       -2.06920
C          3.50180        0.38600       -3.04950
C          2.62220        1.48350       -3.62040
C          2.97250        2.77300       -3.56400
O          0.55750       -0.36280       -2.60960
C          3.93700       -0.53610       -4.21070
H          4.43310        0.85400       -2.65700
H          1.68510        1.22730       -4.10270
H          2.32110        3.53020       -3.98790
H          3.90180        3.08520       -3.09770
F          3.79150        1.13660       -0.25920
F          1.70050        1.58810       -0.95660
F          2.08200       -0.13880        0.42290
Cl         2.37200       -3.48090       -3.11850
Cl         1.56040       -3.04220       -0.37980
Cl        -0.39010       -3.02550       -2.49720
C          5.07090       -1.49290       -3.82980
H          4.33300        0.09610       -5.03700
H          3.06490       -1.09900       -4.60560
H          4.78100       -2.18810       -3.02100
H          5.35580       -2.09640       -4.71730
H          5.95990       -0.91650       -3.49690
