18
TSA8_9_CCl3_Br_CN
C          1.64220        0.94410        1.51900
C          1.89490        2.10770        0.55410
C          2.28070       -0.44840        1.14150
H          0.57170        0.79520        1.32040
Br         2.65590        1.91720       -1.19670
C          1.62840        1.40960        3.04830
C          0.70440        0.50330        3.83170
C         -0.59770        0.46820        3.53090
O          1.37730        3.18880        0.79390
C          2.94030        1.55150        3.69400
H          1.17810        2.41550        3.10690
H          1.09450       -0.11210        4.62430
H         -1.01070        1.09760        2.74760
H         -1.26660       -0.19260        4.05960
Cl         2.19860       -1.67200        2.44430
Cl         1.35850       -1.15910       -0.21740
Cl         4.00080       -0.37360        0.67340
N          3.93290        1.68710        4.27280
