18
TSA8_9_CCl3_Br_CN
C          1.56980        0.03780        0.01470
C          1.29130        1.44980        0.35340
C          1.69160       -1.29090        0.68220
H          1.48360       -0.06960       -1.04340
Br         1.64500        2.64710       -1.09760
C          1.19270        2.08060        4.77920
C          1.37060        1.43250        3.62270
C          0.30100        1.42560        2.55660
O          0.72190        2.13230        1.44330
C          2.30970        2.22300        5.67220
H          0.25160        2.57490        5.01640
H          2.32680        0.94630        3.44030
H         -0.58100        1.95790        2.92940
H         -0.09190        0.42570        2.30060
Cl         1.47090       -1.53130        2.43070
Cl         0.84880       -2.63290       -0.11430
Cl         3.41580       -1.56510        0.32400
N          3.23090        2.31670        6.36470
