18
TSA8_9_CCl3_Br_CN
C          2.10810        0.92990        1.55020
C          0.88000        1.48250        0.74480
C          2.19700       -0.65180        1.47690
H          3.01480        1.30240        1.02530
Br         1.45620        2.71510       -0.64460
C          2.07190        1.63210        2.93960
C          0.74310        1.37370        3.66580
C         -0.41310        1.32450        2.65720
O         -0.11210        2.12820        1.53800
C          3.22710        1.45620        3.82840
H          2.06660        2.72070        2.71190
H          0.70800        0.45930        4.29550
H         -1.33520        1.69020        3.15270
H         -0.62530        0.27990        2.32890
Cl         1.80540       -1.52920        2.97920
Cl         1.14240       -1.35090        0.20130
Cl         3.85550       -1.14840        1.03600
N          4.11310        1.35560        4.56640
