19
TSA8_9_NO2_Cl_CBr3
C          2.00800       -0.08930        0.08950
C          1.25070       -0.63750        1.05670
N          2.40560       -0.77870       -1.09130
H          2.32500        0.94460        0.21280
Cl         0.81540        0.36640        2.44520
C         -0.24450       -4.87770        2.37470
C         -0.32670       -3.92350        1.43100
C         -0.15870       -2.46800        1.76510
O          0.82280       -1.92570        0.96400
C         -0.41820       -6.33960        2.05310
H         -0.05720       -4.59080        3.40630
H         -0.53520       -4.19580        0.39960
H          0.09960       -2.33960        2.83870
H         -1.11750       -1.94700        1.56110
O          3.06010       -0.20720       -1.90940
O          2.03700       -2.02230       -1.32250
Br        -0.31390       -7.38780        3.67980
Br        -2.14620       -6.66680        1.23410
Br         0.98340       -6.93670        0.85350
