21
TSA8_9_CBr3_CN_CCl3
C          2.16160       -1.98560       -0.28070
C          1.05890       -1.49590        0.71300
C          2.18330       -0.91020       -1.48280
H          3.13740       -1.89310        0.23400
C          1.53660       -1.20600        2.08210
C          1.83060       -3.53260       -0.47080
C          0.45620       -3.66300       -1.12050
C         -0.52090       -2.64900       -0.55230
O         -0.14220       -2.28250        0.76580
C          2.73230       -4.71670       -0.94280
H          1.70780       -3.85520        0.58990
H          0.46160       -3.65150       -2.23130
H         -1.51370       -3.13930       -0.54310
H         -0.60130       -1.75240       -1.20000
Br         0.97870        0.64020       -1.25240
Br         3.92000       -0.04380       -1.57970
Br         1.80640       -1.54920       -3.27220
N          1.91900       -1.03090        3.14870
Cl         1.81320       -6.25060       -0.67230
Cl         3.18870       -4.69420       -2.66170
Cl         4.20040       -4.89030        0.05390
