18
TSA8_9_CN_CBr3_H
C          2.04320       -1.65320       -0.37150
C          2.55360       -1.85630        1.04210
C          2.65740       -0.55040       -1.12720
H          1.00850       -1.30970       -0.23470
C          1.83040       -1.19410        2.21640
C          2.03260       -2.95280       -1.21360
C          0.82690       -2.90230       -2.10610
C         -0.38310       -3.00730       -1.53760
O          3.39460       -2.71680        1.26030
H          2.98570       -3.05930       -1.78430
H          1.92920       -3.86970       -0.59040
H          0.92790       -2.75460       -3.17580
H         -0.46200       -3.16790       -0.46120
H         -1.29120       -2.93320       -2.11610
N          3.09660        0.30510       -1.77240
Br         2.25400        0.69400        2.25590
Br        -0.11190       -1.37770        2.12720
Br         2.34130       -1.96460        3.92340
