18
TSA8_9_CN_CBr3_H
C          1.64980       -0.04620        0.08350
C          1.60690       -1.13750        0.89970
C          1.77940       -0.06490       -1.35880
H          1.53940        0.94610        0.49460
C          1.39960       -0.99140        2.40260
C          1.78550       -4.68420       -2.10350
C          1.77640       -3.40960       -1.70780
C          0.90560       -2.93850       -0.58290
O          1.67710       -2.41410        0.43110
H          2.41940       -4.98720       -2.92940
H          1.16400       -5.42920       -1.61560
H          2.40880       -2.69420       -2.22090
H          0.31340       -3.77770       -0.15740
H          0.18160       -2.19240       -0.96270
N          1.88040       -0.03310       -2.51230
Br         1.93300        0.72770        3.14220
Br        -0.47370       -1.28580        2.80790
Br         2.36000       -2.35870        3.38390
