18
TSA8_9_CN_CBr3_H
C          2.46180       -1.57590       -0.37660
C          1.21220       -1.56130        0.57670
C          2.33220       -0.55510       -1.43690
H          3.39740       -1.34750        0.17500
C          1.40260       -1.13110        2.04950
C          2.53190       -2.95990       -1.07470
C          1.17390       -3.26690       -1.72650
C          0.03540       -3.03600       -0.71290
O          0.55370       -2.81490        0.57600
H          3.34750       -3.04680       -1.82660
H          2.71410       -3.74750       -0.30970
H          1.00160       -2.61620       -2.61440
H         -0.59200       -3.94740       -0.68200
H         -0.62990       -2.19070       -1.00860
N          2.26680        0.23220       -2.28410
Br         2.10640        0.65930        2.25900
Br        -0.34460       -1.15370        2.90160
Br         2.53260       -2.36810        3.03390
