20
TSA8_9_CBr3_CF3_Br
C          0.86680       -0.88640        1.34620
C          2.00380       -1.89470        1.62800
C          0.59310       -0.63480       -0.18270
H          1.19020        0.09670        1.74800
C          3.42430       -1.70870        1.14950
C         -0.43280       -1.24890        2.16200
C         -0.18410       -1.28770        3.65600
C          0.24200       -0.21970        4.33890
O          1.77830       -2.87500        2.32430
Br        -1.25170       -2.94030        1.63220
H         -1.20600       -0.46980        2.01200
H         -0.36520       -2.20810        4.20390
H          0.42840        0.72900        3.84670
H          0.40300       -0.29140        5.40960
Br        -0.99650        0.44640       -0.49770
Br         1.99950        0.43440       -0.99830
Br         0.40730       -2.26680       -1.22660
F          3.88690       -0.46290        1.53070
F          4.24640       -2.67150        1.71120
F          3.50530       -1.84600       -0.22070
