22
TSA8_9_Cl_NH2_Et
C          1.94910        0.12520        0.17460
C          1.52200        0.83760        1.24320
Cl         2.41370       -1.57010        0.14320
H          1.98890        0.61510       -0.79500
N          1.14130        2.18960        1.03420
C          4.62270       -0.80000        2.77510
C          3.58130       -0.13150        3.28740
C          2.16320       -0.61180        3.15550
O          1.41320        0.35720        2.51910
C          6.02810       -0.27830        2.90400
H          4.46380       -1.73650        2.24790
H          3.74680        0.80730        3.81190
H          1.75870       -0.74710        4.17990
H          2.07440       -1.59600        2.66050
H          0.82200        2.76150        1.83090
H          1.20020        2.62960        0.10480
C          6.62410       -0.02160        1.52480
H          6.64550       -1.02880        3.44220
H          6.05230        0.67210        3.48090
H          6.64820       -0.96120        0.93180
H          7.66150        0.35960        1.63250
H          6.02040        0.73760        0.98190
