20
TSA8_9_Cl_CBr3_CF3
C          2.76530        1.99150       -2.16630
C          1.47420        1.35170       -1.55370
Cl         4.11220        1.73650       -1.01500
H          3.05360        1.48050       -3.10880
C          0.78040        0.32210       -2.46460
C          2.50880        3.49020       -2.44510
C          2.04240        4.20380       -1.15960
C          1.18690        3.26750       -0.29150
O          0.52840        2.32290       -1.10690
C          3.67830        4.22790       -3.12170
H          1.65470        3.52510       -3.15690
H          2.87270        4.58830       -0.52800
H          0.45130        3.86390        0.28630
H          1.81640        2.74440        0.46700
Br         1.97930       -1.14190       -2.90030
Br        -0.73820       -0.44600       -1.53480
Br         0.13980        1.13120       -4.10960
F          4.01670        3.59060       -4.30200
F          3.29880        5.52550       -3.41630
F          4.78940        4.26900       -2.29870
