18
TSA8_9_OH_Br_CBr3
C          3.12430        1.05880        0.08820
C          1.64140        0.92800       -0.15700
O          3.57670       -0.13160        0.67750
H          3.62910        1.21680       -0.89360
Br         0.94770        1.04410       -1.93530
C          3.44780        2.27810        1.00200
C          2.86010        3.53290        0.37800
C          1.91730        4.25470        0.99300
O          0.87350        0.74610        0.77470
C          4.97360        2.48990        1.25720
H          2.96900        2.10190        1.99220
H          3.20930        3.85560       -0.59830
H          1.51880        5.14420        0.51650
H          1.53720        3.96910        1.96900
H          3.83840       -0.74400       -0.05850
Br         5.25910        4.04760        2.38780
Br         5.79410        1.00790        2.21200
Br         5.97780        2.76820       -0.38810
