18
TSA8_9_OH_Br_CBr3
C          1.84230        0.15420       -0.18930
C          1.29710        1.20330       -0.83700
O          2.43730        0.26970        1.01440
H          1.79590       -0.82890       -0.65010
Br         0.47020        0.87510       -2.52990
C          4.23230        3.51590        1.46670
C          3.41220        3.01260        0.53270
C          1.91970        3.02850        0.72160
O          1.27820        2.49000       -0.37940
C          5.72860        3.51600        1.29220
H          3.80600        3.93690        2.37350
H          3.82680        2.58910       -0.37880
H          1.59650        4.08550        0.82740
H          1.61960        2.49120        1.64650
H          2.81290       -0.50450        1.45570
Br         6.57490        4.31950        2.83940
Br         6.39420        1.70290        1.10740
Br         6.23020        4.54400       -0.27510
