18
TSA8_9_OH_Br_CBr3
C          3.17560        1.21860        0.10120
C          1.79060        1.56240       -0.48090
O          3.12180        0.01640        0.82870
H          3.82780        1.12360       -0.79740
Br         0.88920        0.07800       -1.34300
C          3.65700        2.37570        1.03030
C          3.01750        3.68600        0.53940
C          1.47470        3.53460        0.67870
O          0.97960        2.21330        0.46180
C          5.19810        2.47580        1.17030
H          3.23840        2.20730        2.04930
H          3.29940        3.84060       -0.52570
H          0.94700        4.27330        0.03910
H          1.23940        3.77990        1.73570
H          3.76270       -0.61460        0.40960
Br         5.66220        3.91530        2.38960
Br         5.95540        0.85010        1.91510
Br         6.08210        2.83290       -0.52660
