23
TSA8_9_Br_CHF2_Et
C          3.16380       -0.25210        1.88970
C          1.68150       -0.02120        1.69490
Br         3.98960       -0.26180        0.12060
H          3.57220        0.61640        2.45090
C          1.02940        1.21110        2.25680
C          3.42170       -1.53220        2.73790
C          3.04190       -2.79550        1.99010
C          2.06640       -3.60500        2.41460
O          1.01050       -0.83190        1.07280
C          4.85830       -1.64140        3.31360
H          2.77700       -1.43460        3.64240
H          3.57350       -3.05910        1.08130
H          1.50510       -3.38560        3.31720
H          1.82330       -4.50070        1.85240
F         -0.32120        1.23220        1.95530
F          1.18520        1.23410        3.63030
H          1.50780        2.11270        1.82010
C          5.99850       -1.79910        2.30620
H          4.88500       -2.52630        3.98760
H          5.06720       -0.74440        3.93660
H          5.84950       -2.69530        1.66970
H          6.95340       -1.92350        2.85940
H          6.10700       -0.89620        1.67810
