23
TSA8_9_Br_CHF2_Et
C          2.05470        0.06340        0.35850
C          1.48060       -0.13530        1.57260
Br         2.73290       -1.24420       -0.87200
H          2.15030        1.07840       -0.01590
C          1.00040        1.06170        2.34890
C          3.78280       -2.10250        3.49170
C          3.37290       -2.46700        2.26190
C          1.90440       -2.56280        1.94930
O          1.29060       -1.34490        2.18010
C          5.22240       -1.94910        3.92840
H          3.02920       -1.89110        4.24690
H          4.08090       -2.69280        1.47280
H          1.45130       -3.31660        2.62720
H          1.71560       -2.91690        0.91940
F         -0.35290        0.94060        2.60100
F          1.67800        1.12090        3.55260
H          1.17260        2.01660        1.80600
C          6.26780       -2.22130        2.84750
H          5.40280       -2.64090        4.77880
H          5.36060       -0.90790        4.28930
H          6.18970       -3.26800        2.48510
H          7.28360       -2.07230        3.27260
H          6.13790       -1.51740        1.99810
