17
TSA8_9_Cl_CHF2_F
C          3.09880       -1.49220        0.00730
C          1.55620       -1.73500        0.07300
Cl         3.42850       -0.05130       -0.99960
H          3.51240       -1.26650        1.01520
C          1.06780       -1.95260        1.50460
C          3.78250       -2.73220       -0.57700
C          3.19480       -3.08200       -1.95470
C          1.69950       -2.73010       -2.01850
O          1.12020       -2.82810       -0.73710
F          5.15420       -2.57230       -0.65970
H          3.56740       -3.58110        0.10850
H          3.70400       -2.55690       -2.79310
H          1.18920       -3.41260       -2.72980
H          1.54930       -1.70210       -2.42350
F         -0.30920       -2.07780        1.51090
F          1.63130       -3.09730        2.04100
H          1.34390       -1.07930        2.13210
