15
TSA8_9_I_OH_Cl
C          2.89090       -0.01280        1.58710
C          1.39060        0.10300        1.73410
I          3.35200       -0.49230       -0.46130
H          3.32000        0.99420        1.78050
O          0.82610        1.26460        2.13040
C          3.58150       -0.97570        2.59130
C          3.24320       -2.44310        2.43530
C          2.06660       -2.96580        2.79170
O          0.66570       -0.83360        1.44230
Cl         5.35440       -0.79370        2.41880
H          3.34890       -0.66320        3.63270
H          4.00360       -3.12240        2.05940
H          1.28080       -2.35670        3.22180
H          1.89160       -4.03060        2.67590
H          1.35460        2.04330        2.35420
