15
TSA8_9_I_OH_Cl
C          3.08700       -0.13930        1.52520
C          1.54550       -0.06600        1.73290
I          3.56540       -1.18190       -0.30210
H          3.49200        0.88500        1.37190
O          1.21220        1.18590        2.25400
C          3.70740       -0.78880        2.76530
C          3.12750       -2.19510        2.98330
C          1.68270       -2.29190        2.46070
O          1.01060       -1.06130        2.60950
Cl         5.49150       -0.82920        2.71140
H          3.41490       -0.16430        3.63770
H          3.71430       -2.99490        2.48100
H          1.14840       -3.09080        3.01470
H          1.65530       -2.60000        1.39250
H          0.63310        1.59720        1.56340
