19
TSA8_9_NO2_F_CCl3
C          2.48170       -1.26070       -1.56800
C          1.53530       -1.37200       -0.39570
N          2.80870        0.13730       -1.80390
H          3.40680       -1.79670       -1.26160
F          1.92610       -2.03860        0.72200
C          1.92020       -1.99150       -2.83570
C          0.62900       -1.36460       -3.33720
C         -0.53320       -2.02510       -3.32260
O          0.42500       -0.86530       -0.43160
C          2.94630       -2.11130       -4.00330
H          1.70810       -3.03630       -2.51040
H          0.63790       -0.35420       -3.73100
H         -0.60010       -3.03990       -2.94360
H         -1.43270       -1.54490       -3.69400
O          3.93430        0.51430       -1.67330
O          1.86900        1.01360       -2.08970
Cl         2.25800       -3.10240       -5.32210
Cl         3.40490       -0.53270       -4.70620
Cl         4.43740       -2.94000       -3.47290
