17
TSA8_9_Cl_CHF2_I
C          3.05450       -1.08170       -1.26280
C          1.55190       -1.20890       -1.16780
Cl         3.62970        0.08150       -0.02850
H          3.50560       -2.06870       -1.02110
C          0.92830       -2.52960       -0.81330
C          3.51370       -0.69820       -2.68680
C          3.05280        0.68030       -3.09780
C          2.25490        0.87670       -4.15120
O          0.83900       -0.23580       -1.37050
I          5.65210       -0.76500       -2.83630
H          3.12890       -1.46710       -3.39360
H          3.38130        1.54070       -2.52280
H          1.90320        0.04550       -4.75430
H          1.94700        1.88300       -4.41570
F         -0.45180       -2.42650       -0.77240
F          1.28130       -3.47910       -1.75380
H          1.29280       -2.85160        0.18470
