27
TSA8_9_CF3_Et_OMe
C          2.66000       -0.86140        0.88010
C          1.45280       -0.11190        1.49250
C          2.18150       -1.70660       -0.32860
H          3.37900       -0.12400        0.45960
C          1.80540        1.16410        2.28580
C          3.37960       -1.66360        1.99610
C          2.36630       -2.53980        2.74780
C          1.20980       -1.66470        3.24330
O          0.56160       -0.98820        2.17520
O          4.43630       -2.42750        1.44110
H          3.78730       -0.90830        2.70910
H          1.98500       -3.35790        2.10530
H          1.55430       -0.95140        4.02090
H          0.47020       -2.32410        3.74290
F          3.25020       -2.35870       -0.91520
F          1.22540       -2.64030        0.02380
F          1.62500       -0.86350       -1.27530
C          0.54360        1.91340        2.70390
H          2.40700        1.83180        1.63290
H          2.41180        0.93440        3.18510
H         -0.05660        2.18240        1.80910
H          0.82430        2.84480        3.23890
H         -0.07300        1.28830        3.38370
C          5.25560       -2.96810        2.45720
H          5.57110       -2.20350        3.20170
H          6.18620       -3.34820        1.98720
H          4.75500       -3.82930        2.94890
