20
TSA8_9_Et_F_Cl
C          2.49420       -1.23860        0.32880
C          1.16660       -1.22280        1.05360
C          2.38020       -0.31490       -0.91610
H          3.21810       -0.78380        1.04110
F          1.10890       -0.75920        2.32970
C          3.00790       -2.69070        0.05400
C          2.32290       -3.43240       -1.07450
C          1.08320       -3.92300       -0.99120
O          0.13300       -1.55570        0.49780
Cl         4.77160       -2.68410       -0.25850
H          2.92270       -3.29250        0.98520
H          2.87730       -3.61810       -1.99030
H          0.48870       -3.82570       -0.09320
H          0.65970       -4.46290       -1.83190
C          3.68480       -0.05820       -1.66680
H          2.01020        0.67660       -0.57160
H          1.63440       -0.72680       -1.63050
H          4.45070        0.36010       -0.97970
H          3.49950        0.67610       -2.47900
H          4.06030       -0.98270       -2.14580
