19
TSA8_9_CCl3_H_NH2
C          1.51550        0.69380        1.77790
C          0.85180        1.05900        0.46470
C          1.46800       -0.85600        2.00950
H          2.59480        0.93850        1.65650
H          1.44950        1.47670       -0.33870
C          0.98680        1.64870        2.90760
C         -0.51600        1.61000        3.12450
C         -1.28870        2.67570        2.88840
O         -0.34330        0.88280        0.28530
N          1.67390        1.42950        4.18160
H          1.26220        2.67420        2.56410
H         -0.98790        0.70800        3.49300
H         -0.86730        3.60790        2.52500
H         -2.35870        2.61930        3.05900
Cl        -0.17360       -1.50700        2.26710
Cl         2.14070       -1.69780        0.58060
Cl         2.50030       -1.37040        3.37230
H          1.28820        0.58030        4.65420
H          1.47940        2.23870        4.81640
