17
TSA8_9_H_CCl3_Br
C          1.89930        0.25630        0.03880
C          1.63830        1.37790        0.74750
H          2.15140       -0.68480        0.50680
H          1.85600        0.23120       -1.04220
C          1.25420        2.68670        0.07660
C          3.03310        1.25750        5.21650
C          3.20320        1.22960        3.89080
C          2.26200        0.49230        2.98370
O          1.68800        1.40180        2.11300
Br         4.25740        2.21730        6.32740
H          2.20120        0.74080        5.68550
H          4.04390        1.75580        3.44830
H          1.45390       -0.00110        3.56610
H          2.84930       -0.28980        2.46730
Cl         2.44700        3.93020        0.52870
Cl         1.17180        2.64320       -1.71190
Cl        -0.34300        3.20050        0.67480
