21
TSA8_9_OMe_CBr3_I
C          1.23420       -0.26250       -1.46500
C          2.36330       -1.25140       -1.23730
O          1.75260        1.05410       -1.33660
H          0.43870       -0.50010       -0.71650
C          2.27530       -2.30330       -0.15160
C          0.59010       -0.45650       -2.85720
C         -0.65780        0.37910       -2.98560
C         -1.86160       -0.17570       -3.15990
O          3.35850       -1.19530       -1.94420
I          1.89550        0.07080       -4.48400
H          0.32730       -1.53090       -2.97060
H         -0.58040        1.46020       -2.93510
H         -1.98250       -1.25310       -3.21530
H         -2.74080        0.45330       -3.24720
C          1.05480        1.80070       -0.36200
H          0.07010        2.13130       -0.75270
H          1.64820        2.70850       -0.12920
H          0.94530        1.24870        0.59700
Br         2.10690       -1.46370        1.58740
Br         0.73820       -3.44800       -0.45110
Br         3.85350       -3.44030       -0.10760
