17
TSA8_9_NO2_CN_Br
C          1.44050       -1.77100        0.01400
C          2.49390       -1.70780        1.08300
N          1.90990       -1.19380       -1.24190
H          0.60750       -1.12880        0.37510
C          2.14050       -1.09530        2.34680
C          0.88240       -3.22440       -0.09280
C         -0.57940       -3.19980       -0.45090
C         -1.46970       -2.83750        0.48720
O          3.56430       -2.27760        0.96600
Br         1.90270       -4.49710       -1.16490
H          0.91200       -3.69780        0.91420
H         -0.92150       -3.48010       -1.44070
H         -1.13560       -2.57850        1.49260
H         -2.53090       -2.80840        0.27770
O          2.30790       -0.06620       -1.25680
O          1.88130       -1.86800       -2.37250
N          1.82980       -0.58380        3.33420
