24
TSA8_9_NO2_OMe_OMe
C          3.16950       -0.66100        1.41410
C          1.65320       -0.39980        1.64610
N          3.35910       -1.11090        0.04550
H          3.74750        0.27730        1.57250
O          1.29000        0.96710        1.66610
C          3.64720       -1.68530        2.48150
C          2.73420       -2.92230        2.59680
C          1.25810       -2.53090        2.38100
O          1.05290       -1.16520        2.68670
O          5.03770       -1.97640        2.52860
H          3.45830       -1.14840        3.43820
H          2.97860       -3.77340        1.92970
H          0.61230       -3.17020        3.01720
H          0.94090       -2.74090        1.33260
O          4.02380       -0.46510       -0.70790
O          2.76000       -2.19660       -0.39620
C          1.55220        1.52400        2.93740
H          1.44380        2.62540        2.86560
H          2.59220        1.33200        3.28140
H          0.81310        1.16590        3.68630
C          5.54330       -2.53970        1.33920
H          6.45250       -3.12090        1.59500
H          5.85380       -1.73830        0.63850
H          4.85150       -3.25820        0.85560
