25
TSA8_9_CBr3_NO2_Et
C          1.73550        0.00740       -0.01770
C          1.52860        0.51920       -1.25590
C          1.74720        0.74240        1.31230
H          1.94270       -1.05490        0.06770
N          1.57810       -0.34840       -2.39890
C          4.36050        2.47860       -2.71560
C          3.34980        2.83440       -1.90330
C          1.90720        2.68860       -2.30380
O          1.27560        1.84840       -1.40410
C          5.82960        2.58330       -2.35720
H          4.12880        2.07780       -3.69810
H          3.54060        3.23040       -0.91340
H          1.79080        2.33750       -3.34820
H          1.43500        3.69100       -2.24490
Br         0.47510       -0.11410        2.49220
Br         3.51170        0.53420        2.08020
Br         1.34010        2.64680        1.32300
O          1.28490        0.05830       -3.48120
O          1.85530       -1.62830       -2.26040
C          6.13000        3.14510       -0.96480
H          6.32460        3.23210       -3.11040
H          6.27300        1.56690       -2.42440
H          5.73520        4.17930       -0.87050
H          7.22840        3.17540       -0.80570
H          5.68190        2.49940       -0.17920
