19
TSA8_9_NO2_CCl3_Cl
C          2.58420       -1.26170        0.45930
C          1.34700       -0.65240        1.09720
N          2.69050       -0.80380       -0.91480
H          3.47960       -0.91850        1.02730
C          1.46890        0.33670        2.24000
C          2.54910       -2.80880        0.49630
C          2.38590       -3.33700        1.89850
C          1.34130       -4.09770        2.24300
O          0.24370       -0.95130        0.66410
Cl         4.06810       -3.46820       -0.17390
H          1.71220       -3.16640       -0.14290
H          3.13350       -3.09600        2.64810
H          1.24660       -4.46520        3.25920
H          0.57480       -4.36110        1.51990
O          3.63680       -0.16170       -1.26090
O          1.74990       -1.08990       -1.79070
Cl         2.32530       -0.39130        3.62300
Cl         2.37700        1.76930        1.69290
Cl        -0.13130        0.88610        2.81520
