17
TSA8_9_Br_I_CCl3
C          1.86510       -0.06530       -0.21360
C          1.41450        0.12200       -1.46320
Br         2.24090        1.36870        1.00220
H          1.99780       -1.07560        0.15840
I          0.95680       -1.56310       -2.65210
C          2.43780        1.40060       -4.67430
C          3.02120        1.67000       -3.49490
C          2.22670        2.22490       -2.34490
O          1.20930        1.35730       -1.98780
C          3.21110        0.84300       -5.84040
H          1.37340        1.58990       -4.79100
H          4.08400        1.49040       -3.35800
H          1.78090        3.19350       -2.65480
H          2.90120        2.41820       -1.48700
Cl         2.12310        0.61320       -7.23280
Cl         4.51050        1.96560       -6.32060
Cl         3.92330       -0.73590       -5.41690
