17
TSA8_9_F_CCl3_F
C          3.06940        0.01210       -2.03350
C          1.52870        0.09620       -1.76140
F          3.74560        0.54490       -0.94870
H          3.41010       -1.03740       -2.15360
C          0.75240       -1.18880       -2.11130
C          3.40880        0.83100       -3.28120
C          2.95290        2.28810       -3.10520
C          1.70190        2.36980       -2.21510
O          0.90730        1.21800       -2.39320
F          4.76160        0.78140       -3.56740
H          2.85260        0.39580       -4.13740
H          3.73250        2.93280       -2.64460
H          1.12490        3.28370       -2.46500
H          1.98580        2.47030       -1.14060
Cl         0.85060       -1.57330       -3.85080
Cl         1.36740       -2.57530       -1.17120
Cl        -0.96480       -0.97980       -1.68020
