18
TSA8_9_OH_CF3_I
C          2.03540        0.11420       -0.37120
C          1.42460        0.86080       -1.31880
O          2.37240        0.62470        0.83020
H          2.24770       -0.93590       -0.55020
C          1.00480        0.25160       -2.63570
C          2.71210        3.85000       -2.95080
C          3.05170        3.43520       -1.72480
C          1.99820        3.16430       -0.68660
O          1.13150        2.18090       -1.13540
I          4.18220        4.23270       -4.41370
H          1.66880        3.99680       -3.21620
H          4.09800        3.29670       -1.47300
H          1.42140        4.09880       -0.52410
H          2.46670        2.89760        0.27890
H          2.78740        0.06900        1.50430
F         -0.35820        0.40290       -2.79590
F          1.65160        0.91360       -3.66220
F          1.31480       -1.09600       -2.71830
