14
TSA8_9_Br_Br_H
C          2.36520       -1.63740        0.80260
C          0.93880       -1.66400        0.17810
Br         3.60790       -0.62000       -0.30170
H          2.34420       -1.09770        1.77360
Br        -0.38120       -1.68880        1.60250
C          2.84090       -3.07670        0.99350
C          2.84600       -3.82780       -0.34620
C          1.81250       -3.24660       -1.32760
O          0.66280       -2.80110       -0.64380
H          3.83710       -3.13820        1.48090
H          2.10800       -3.57940        1.66130
H          3.83720       -3.79690       -0.84780
H          1.53850       -4.02640       -2.06790
H          2.23670       -2.40840       -1.92190
