21
TSA8_9_CBr3_OH_CCl3
C          1.84400       -0.01150       -0.01400
C          1.87800       -0.19680       -1.35330
C          1.71650        1.29700        0.74620
H          1.95770       -0.89310        0.61180
O          2.03760       -1.44830       -1.84360
C          2.26440        0.12200       -5.59200
C          2.62630       -0.03530       -4.30820
C          2.56480        1.09660       -3.31310
O          1.76260        0.84870       -2.20980
C          2.39600       -1.00040       -6.59010
H          1.88540        1.08340       -5.92890
H          3.02120       -0.99350       -3.98880
H          2.19390        2.02520       -3.79840
H          3.59750        1.29580       -2.95820
Br         0.24530        1.15280        1.99450
Br         3.34120        1.53430        1.77120
Br         1.44360        2.92700       -0.28350
H          2.11200       -2.23190       -1.27980
Cl         1.85760       -0.45260       -8.19750
Cl         4.10070       -1.51280       -6.71840
Cl         1.39940       -2.39600       -6.10270
