21
TSA8_9_CBr3_OH_CCl3
C          1.83480       -0.38920       -2.20500
C          0.70940        0.65010       -1.97610
C          2.85270       -0.31790       -1.00820
H          1.36770       -1.39360       -2.10460
O         -0.46600        0.33460       -2.67070
C          2.29360       -0.22100       -3.70640
C          2.60990        1.25160       -4.02460
C          1.43740        2.14270       -3.60490
O          1.12740        1.98190       -2.23140
C          3.37920       -1.16550       -4.29410
H          1.37920       -0.46250       -4.29610
H          3.54150        1.58490       -3.53360
H          0.54560        1.94700       -4.24090
H          1.72020        3.20070       -3.78600
Br         1.87330       -0.42950        0.67400
Br         4.03700       -1.85180       -0.90450
Br         3.92100        1.30100       -0.88790
H         -1.12670        0.12890       -1.96200
Cl         3.41130       -0.98180       -6.07210
Cl         5.03750       -0.79890       -3.73910
Cl         2.98780       -2.87730       -3.97410
