19
TSA8_9_CN_CN_CCl3
C          3.13920       -0.36840       -1.53920
C          1.90250       -1.14570       -0.98300
C          2.70470        1.03060       -1.37410
H          4.02420       -0.51960       -0.88290
C          2.12900       -2.29500       -0.09090
C          3.42530       -0.66380       -3.07510
C          2.45560       -1.72280       -3.56870
C          1.05480       -1.25690       -3.20940
O          0.77130       -1.33020       -1.82190
C          4.85410       -0.96550       -3.62230
H          3.15440        0.25730       -3.63150
H          2.66630       -2.72860       -3.13930
H          0.34680       -1.89670       -3.77160
H          0.90550       -0.20830       -3.55710
N          2.33510        2.12310       -1.27500
N          2.25610       -3.19710        0.62480
Cl         4.74820       -1.15690       -5.40900
Cl         5.98240        0.38400       -3.34500
Cl         5.57120       -2.46480       -2.97560
