16
TSA8_9_OH_CN_Br
C          1.66930       -0.91260       -1.20390
C          2.02900       -1.81050       -0.04320
O          2.80610       -0.14460       -1.51180
H          0.84400       -0.22000       -0.89790
C          1.33610       -1.73940        1.21510
C          1.20830       -1.74620       -2.43520
C         -0.29470       -1.91670       -2.45530
C         -0.97240       -2.62640       -1.55200
O          2.99010       -2.55860       -0.14270
Br         1.70960       -0.89850       -4.12030
H          1.71970       -2.73550       -2.46700
H         -0.86080       -1.43050       -3.24610
H         -0.46940       -3.14830       -0.74780
H         -2.05450       -2.69040       -1.63150
H          2.47640        0.73540       -1.84260
N          0.77820       -1.68190        2.22570
