16
TSA8_9_OH_CN_Br
C          1.63120       -0.06770        0.04040
C          1.58080       -1.39360        0.26650
O          1.69850        0.41760       -1.21880
H          1.53260        0.63240        0.86450
C          1.32650       -1.90780        1.58640
C          0.71510       -3.12980       -3.91620
C          0.84880       -2.21410       -2.95750
C          0.52450       -2.52310       -1.53400
O          1.63180       -2.28330       -0.74900
Br         1.14780       -2.68730       -5.72110
H          0.35810       -4.12900       -3.68560
H          1.19600       -1.21680       -3.20830
H          0.19530       -3.57300       -1.39100
H         -0.32590       -1.89000       -1.22910
H          1.49750        1.34950       -1.39480
N          1.11960       -2.35720        2.63220
