16
TSA8_9_OH_CN_Br
C          1.62600       -0.93370       -1.21000
C          1.72190       -1.92680       -0.02310
O          2.75150       -0.10330       -1.21330
H          0.68600       -0.32510       -1.13660
C          1.36430       -1.32310        1.26140
C          1.55090       -1.78190       -2.48780
C          0.26150       -2.61530       -2.44370
C         -0.09370       -3.03890       -1.00470
O          1.07350       -3.18950       -0.21570
Br         1.62780       -0.74240       -4.12440
H          2.42470       -2.47110       -2.48790
H         -0.61510       -2.04390       -2.82500
H         -0.65680       -3.99510       -1.03710
H         -0.76540       -2.29550       -0.52000
H          2.48880        0.74520       -1.65750
N          1.08230       -0.84790        2.27700
