19
TSA8_9_CBr3_Cl_NH2
C          1.58590       -0.76680        2.02360
C          1.21250        0.55170        1.37090
C          1.68720       -1.90180        0.94400
H          2.61750       -0.64070        2.42130
Cl         2.35620        1.88740        1.37300
C          0.67950       -0.98050        3.28760
C         -0.79450       -1.17700        2.99120
C         -1.72270       -0.29850        3.38220
O          0.12000        0.71180        0.85000
N          1.16280       -2.07300        4.13400
H          0.80170       -0.04590        3.88480
H         -1.11950       -2.06480        2.46350
H         -1.45390        0.60350        3.92270
H         -2.76870       -0.48240        3.15870
Br         0.03250       -2.29290       -0.00360
Br         2.97040       -1.37510       -0.42200
Br         2.39090       -3.57220        1.63940
H          0.84900       -2.99360        3.75590
H          0.73090       -1.98160        5.08240
