19
TSA8_9_CBr3_Cl_NH2
C          1.79360       -0.02270        0.03590
C          1.06450        0.34230        1.10780
C          2.20450       -1.42160       -0.38310
H          2.12970        0.77280       -0.62480
Cl         0.72890        2.06500        1.32490
C         -0.21890       -1.59340        5.14680
C         -0.51670       -1.50930        3.84170
C         -0.24230       -0.26410        3.04870
O          0.59680       -0.56840        1.99820
N         -0.48570       -2.77380        5.88220
H          0.23190       -0.74840        5.66050
H         -0.97110       -2.35610        3.33460
H          0.22490        0.51570        3.69040
H         -1.20500        0.12560        2.65310
Br         1.50430       -1.74000       -2.15920
Br         4.13640       -1.48150       -0.47760
Br         1.63190       -2.90950        0.73550
H         -0.91090       -3.59850        5.43260
H         -0.25330       -2.81460        6.88410
