21
TSA8_9_Cl_OMe_CBr3
C          1.75670        0.12630       -0.04510
C          1.76930       -1.17430        0.32560
Cl         1.50880        0.77310       -1.66310
H          1.90400        0.87720        0.72410
O          1.96590       -1.42410        1.64370
C          3.99750       -3.27420       -2.65530
C          3.30120       -2.25470       -2.12610
C          1.82330       -2.35860       -1.86960
O          1.59230       -2.24110       -0.51320
C          5.48640       -3.20000       -2.85890
H          3.47880       -4.18850       -2.93070
H          3.81140       -1.33720       -1.84690
H          1.45060       -3.35570       -2.18880
H          1.24450       -1.62390       -2.45470
C          2.31920       -2.66380        2.13360
H          2.36120       -2.62030        3.24120
H          3.32480       -2.93990        1.75060
H          1.57750       -3.43360        1.82980
Br         6.12690       -4.84660       -3.65520
Br         5.95540       -1.72880       -4.03260
Br         6.37860       -2.96800       -1.15070
