20
TSA8_9_Me_CF3_Br
C          2.82870        0.47540        0.98870
C          1.41560        1.04410        1.36250
C          2.69350       -0.96840        0.47810
H          3.27580        1.05900        0.15320
C          1.11100        2.36170        0.64450
C          3.75020        0.59590        2.21740
C          3.13680       -0.09930        3.44160
C          1.60690        0.06030        3.45290
O          1.23460        1.23470        2.76560
Br         5.57060       -0.00680        1.90200
H          3.81400        1.67990        2.45830
H          3.37280       -1.18350        3.50450
H          1.24900        0.09520        4.50210
H          1.10110       -0.82080        2.99630
H          2.26980       -1.64840        1.24280
H          3.68290       -1.36600        0.17040
H          2.02860       -0.98860       -0.41160
F         -0.16660        2.77890        0.97050
F          2.01560        3.33630        1.02750
F          1.18100        2.18390       -0.72560
