14
TSA8_9_I_I_Cl
C          1.77130       -1.60600        1.25970
C          0.94180       -0.32520        1.43150
I          1.17600       -2.55330       -0.58380
H          2.84540       -1.34780        1.14520
I          1.74420        1.09240        2.84330
C          1.56640       -2.49970        2.49370
C          0.07200       -2.73240        2.71590
C         -0.63460       -1.37330        2.80500
O         -0.43770       -0.60090        1.62950
Cl         2.43360       -4.05270        2.34570
H          1.97260       -1.97990        3.38840
H         -0.36130       -3.31970        1.87830
H         -0.30910       -0.81640        3.70970
H         -1.72210       -1.55700        2.92700
