18
TSA8_9_Me_I_CN
C          2.29900       -1.37700        1.19840
C          0.98420       -0.58960        1.45950
C          2.35290       -1.68640       -0.30680
H          3.14680       -0.73070        1.52470
I          1.34520        1.47970        0.98260
C          2.37060       -2.71040        2.00190
C          1.74610       -2.57330        3.38510
C          0.37410       -1.94240        3.20610
O          0.56910       -0.60720        2.80600
C          3.76240       -3.17730        2.15320
H          1.77590       -3.49370        1.48460
H          2.34750       -1.91640        4.05500
H         -0.17200       -1.95320        4.16870
H         -0.25350       -2.51580        2.47690
H          1.49600       -2.35260       -0.57300
H          3.29120       -2.20240       -0.59030
H          2.24600       -0.76470       -0.91720
N          4.85730       -3.52530        2.28390
