20
TSA8_9_CCl3_I_CCl3
C          1.39580       -2.49140       -0.88390
C          0.87350       -1.75420        0.37370
C          1.81980       -1.43320       -1.96420
H          2.34860       -2.98460       -0.59240
I          1.12280       -2.80340        2.24340
C          0.34520       -3.62050       -1.20610
C         -1.07790       -3.03860       -1.27350
C         -1.37160       -2.22730       -0.00780
O         -0.41810       -1.19770        0.18960
C          0.60730       -4.60150       -2.38350
H          0.36040       -4.27280       -0.30360
H         -1.22140       -2.41220       -2.17330
H         -1.43250       -2.89390        0.87860
H         -2.37530       -1.76730       -0.11530
Cl         2.77960       -2.14290       -3.28600
Cl         0.47750       -0.49130       -2.66850
Cl         2.93330       -0.24480       -1.21990
Cl         2.24890       -5.29590       -2.29000
Cl        -0.53110       -5.97470       -2.26160
Cl         0.33750       -3.89040       -4.00130
