20
TSA8_9_CBr3_NO2_CN
C          1.56660        0.02160       -0.04050
C          1.20240        0.44060       -1.39320
C          1.72030        0.57420        1.32620
H          1.43900       -1.04440       -0.01570
N          1.63140       -0.45780       -2.40370
C          0.97490        4.70360       -2.27110
C          1.18470        3.72610       -1.39000
C          0.15150        2.65290       -1.18040
O          0.52960        1.55450       -1.92650
C          2.09560        5.50890       -2.67460
H          0.00950        4.82390       -2.75660
H          2.16780        3.63060       -0.94640
H         -0.80980        2.98280       -1.60710
H         -0.13150        2.40940       -0.14450
Br         0.80370       -0.34940        2.75510
Br         3.57790        0.05450        1.54240
Br         1.59760        2.46240        1.74590
O          1.08000       -0.40310       -3.45190
O          2.47790       -1.44650       -2.16620
N          3.01900        6.13750       -2.97400
