16
TSA8_9_OH_CN_I
C          1.49960       -0.95870       -1.31240
C          1.86740       -1.85250       -0.15390
O          2.67100       -0.29340       -1.71440
H          0.73630       -0.20940       -0.98300
C          1.27840       -1.67880        1.14650
C          0.91240       -1.76790       -2.49960
C         -0.52800       -2.17980       -2.27020
C         -0.92960       -2.99200       -1.28910
O          2.74090       -2.69800       -0.29710
I          0.95250       -0.60180       -4.31150
H          1.54630       -2.65830       -2.70740
H         -1.29000       -1.79730       -2.94370
H         -0.23550       -3.42480       -0.58140
H         -1.98490       -3.23140       -1.19540
H          2.42870        0.65580       -1.88370
N          0.80640       -1.55000        2.19810
