16
TSA8_9_OH_CN_I
C          1.37510       -0.85540       -1.46490
C          1.67680       -1.82050       -0.28220
O          2.45250        0.03010       -1.62870
H          0.42350       -0.29520       -1.28140
C          1.29190       -1.28630        1.03290
C          1.17820       -1.73130       -2.70420
C         -0.06070       -2.60330       -2.46470
C         -0.09060       -3.14820       -1.02350
O          1.20220       -3.15560       -0.45440
I          0.98040       -0.68060       -4.55850
H          2.06800       -2.39070       -2.81680
H         -0.99630       -2.01270       -2.60500
H         -0.50030       -4.17820       -1.04330
H         -0.77370       -2.55020       -0.37660
H          2.07020        0.91630       -1.86630
N          0.97270       -0.86660        2.06320
