14
TSA8_9_F_F_H
C          1.51840       -2.02430       -0.19210
C          1.18000       -0.94070        0.79270
F          0.97370       -1.73790       -1.43430
H          2.62440       -2.04320       -0.29470
F          1.66210       -1.00560        2.06150
C          1.05360       -3.41970        0.26280
C         -0.44700       -3.58140        0.32750
C         -1.21650       -2.93790        1.21140
O          0.48160        0.00470        0.46220
H          1.43220       -4.14690       -0.48770
H          1.50470       -3.68240        1.24460
H         -0.92100       -4.27130       -0.36470
H         -0.79790       -2.25670        1.94260
H         -2.28880       -3.10410        1.21480
