14
TSA8_9_F_F_H
C          2.06100       -0.13100        0.07030
C          1.26760       -0.90020        0.81680
F          2.32390       -0.45710       -1.22250
H          2.50220        0.76660        0.49190
F          1.01760       -0.54870        2.10820
C         -0.33730       -5.24780        0.43360
C         -0.57090       -3.97170        0.11260
C         -0.13670       -2.83700        0.99310
O          0.71740       -2.01850        0.28680
H         -0.66690       -6.04200       -0.22840
H          0.17990       -5.51240        1.35070
H         -1.09220       -3.74580       -0.81320
H          0.37680       -3.21330        1.90630
H         -1.03710       -2.26250        1.30040
