22
TSA8_9_OH_Me_OMe
C          2.85570        1.17600       -1.64810
C          1.53810        0.57590       -2.09040
O          2.78540        1.53470       -0.29330
H          3.66630        0.41870       -1.77610
C          1.48130       -0.83080       -2.60280
C          3.26670        2.39240       -2.51550
C          2.26720        3.53640       -2.45960
C          2.00430        4.21880       -1.34110
O          0.50850        1.23080       -2.01850
O          3.40440        1.93940       -3.85380
H          4.24410        2.75070       -2.11310
H          1.75260        3.82830       -3.37130
H          1.28530        5.03180       -1.36050
H          2.49890        3.98860       -0.40400
H          2.85260        0.69410        0.23080
H          2.12480       -0.92440       -3.50250
H          0.44140       -1.10830       -2.87610
H          1.84440       -1.52850       -1.81890
C          4.27660        2.77780       -4.58380
H          5.27470        2.86490       -4.10050
H          3.81970        3.77580       -4.75720
H          4.44940        2.31690       -5.57800
