22
TSA8_9_OH_Me_OMe
C          1.78780        0.01410       -0.14770
C          1.44520        0.29930       -1.42510
O          2.24980        0.94990        0.70490
H          1.66740       -0.99960        0.22620
C          0.88070       -0.78530       -2.29890
C          4.02210        3.99790       -2.91800
C          3.12550        2.99580       -2.93420
C          2.42560        2.56330       -1.67980
O          1.55300        1.53560       -1.99130
O          4.68790        4.42530       -4.02620
H          4.23510        4.49790       -1.97730
H          2.89230        2.47730       -3.85930
H          1.84820        3.41850       -1.26860
H          3.20430        2.25230       -0.95660
H          2.47560        0.71800        1.61620
H          1.53160       -0.91080       -3.18930
H         -0.13560       -0.49380       -2.63620
H          0.81110       -1.76250       -1.77450
C          4.55320        3.90760       -5.29900
H          5.22580        4.45790       -5.98840
H          3.50710        4.02720       -5.65360
H          4.83800        2.83370       -5.30880
