22
TSA8_9_OH_Me_OMe
C          3.02400        1.13770       -2.04630
C          1.53110        0.89230       -2.35640
O          3.19930        1.25810       -0.65390
H          3.68200        0.31940       -2.42460
C          1.07200       -0.48050       -1.87250
C          3.45550        2.44760       -2.74320
C          2.30160        3.48050       -2.75600
C          1.27530        3.17950       -1.65940
O          0.67150        1.89380       -1.80390
O          3.82640        2.15070       -4.08040
H          4.33110        2.81910       -2.15930
H          1.73800        3.39390       -3.71210
H          0.47640        3.94720       -1.72950
H          1.73520        3.27720       -0.65350
H          3.36710        0.34610       -0.29890
H          1.69740       -1.27530       -2.33120
H          0.01740       -0.64420       -2.17690
H          1.13790       -0.55110       -0.76630
C          4.67830        3.15320       -4.59260
H          5.61200        3.24420       -3.99480
H          4.14960        4.12780       -4.67470
H          4.98330        2.85960       -5.61800
