18
TSA8_9_CBr3_Br_CN
C          2.33640        1.48680        1.03430
C          1.96240        2.18990       -0.29420
C          2.33090       -0.07270        1.45230
H          1.64010        1.02630        0.38170
Br         2.60590        1.62780       -2.01820
C          2.09920        2.54420        2.19470
C          1.09290        2.12270        3.21710
C         -0.18150        1.99430        2.88620
O          1.03820        3.00770       -0.31920
C          3.37730        2.97330        2.79330
H          1.74870        3.52590        1.80920
H          1.42340        1.89720        4.23130
H         -0.51000        2.23760        1.87700
H         -0.89280        1.65840        3.61810
Br         0.68510       -1.08760        0.89940
Br         3.84040       -0.95900        0.64650
Br         2.48560       -0.55620        3.34060
N          4.33910        3.35930        3.31120
