18
TSA8_9_CBr3_Br_CN
C          1.63140        0.07920       -0.00500
C          1.44850        1.42640       -0.31220
C          1.66920       -0.93000        1.16830
H          1.60510       -0.52390       -0.91650
Br         1.82410        1.88850       -2.13760
C          1.78730        3.87950        3.43630
C          1.77660        2.78620        2.66920
C          0.61080        2.45330        1.76880
O          1.05000        2.48680        0.46550
C          3.00820        4.28170        4.08410
H          0.92980        4.54250        3.48930
H          2.67570        2.17610        2.64200
H         -0.19850        3.19300        1.92490
H          0.13350        1.48740        1.96060
Br         0.60530       -2.55350        0.92740
Br         3.48800       -1.55380        1.00090
Br         1.43970       -0.45340        3.02720
N          3.97810        4.62340        4.61370
