18
TSA8_9_CBr3_Br_CN
C          2.31490        1.37970        1.07000
C          1.08900        1.67100        0.13830
C          2.29670       -0.10150        1.62570
H          3.21420        1.42910        0.41780
Br         1.67610        2.11480       -1.66290
C          2.41170        2.57200        2.06550
C          1.10290        2.78260        2.84170
C         -0.10260        2.45550        1.94860
O          0.22130        2.70050        0.59890
C          3.59430        2.63610        2.93280
H          2.49740        3.47650        1.41780
H          1.01060        2.22440        3.79550
H         -0.96280        3.08410        2.25470
H         -0.42930        1.39610        2.07560
Br         1.20330       -1.30180        0.53490
Br         4.08290       -0.86330        1.55310
Br         1.68670       -0.36380        3.45070
N          4.50620        2.74120        3.63610
