19
TSA8_9_NO2_CN_NO2
C          2.62630       -1.29670       -0.61740
C          1.55590       -1.45870        0.44030
N          2.42330       -0.03860       -1.32250
H          3.60650       -1.26740       -0.08550
C          1.91590       -1.41480        1.83660
C          2.66750       -2.52490       -1.57940
C          1.54330       -2.51060       -2.59250
C          0.50880       -3.35050       -2.54120
O          0.37930       -1.56910        0.13090
N          3.93570       -2.60030       -2.28420
H          2.58960       -3.43490       -0.93850
H          1.57670       -1.77930       -3.39540
H          0.41710       -4.08350       -1.74770
H         -0.26990       -3.28310       -3.29460
O          3.25900        0.81170       -1.27730
O          1.28050        0.21880       -1.92490
N          2.20350       -1.36100        2.95690
O          4.34090       -1.64970       -2.88310
O          4.41740       -3.78720       -2.58770
