19
TSA8_9_NO2_Cl_CCl3
C          2.82010       -1.55060       -0.08720
C          1.44730       -1.05870        0.31620
N          3.23910       -0.82970       -1.27530
H          3.51550       -1.31690        0.75020
Cl         1.21320       -0.28040        1.87370
C          2.82540       -3.09890       -0.31460
C          2.27000       -3.77850        0.92740
C          1.15170       -4.51060        0.89310
O          0.48990       -1.20150       -0.42900
C          4.23220       -3.69670       -0.63770
H          2.15930       -3.32420       -1.17880
H          2.79100       -3.66530        1.87340
H          0.78280       -4.97970        1.79890
H          0.59770       -4.64870       -0.03040
O          4.19780       -0.11860       -1.23720
O          2.55240       -0.93120       -2.39410
Cl         4.11860       -5.47110       -0.82980
Cl         4.90750       -3.08930       -2.17430
Cl         5.41910       -3.36360        0.65860
