16
TSA8_9_Br_Br_NH2
C          2.87270       -1.19400        1.24150
C          1.34330       -1.31800        0.96920
Br         3.82500       -0.81610       -0.42060
H          3.06950       -0.31540        1.89300
Br         0.35670       -0.54750        2.45340
C          3.34840       -2.49070        1.91050
C          3.06380       -3.69960        0.99610
C          1.80980       -3.46050        0.13490
O          0.87400       -2.66100        0.82320
N          4.75500       -2.42860        2.30880
H          2.73360       -2.61130        2.83090
H          3.89810       -3.93310        0.29900
H          1.35870       -4.43880       -0.12920
H          2.06590       -2.97720       -0.83410
H          5.37200       -2.38770        1.46510
H          4.99620       -3.29140        2.84850
