18
TSA8_9_OH_CF3_Br
C          1.96310        1.46140       -1.28160
C          0.79610        0.96970       -2.10620
O          1.61370        1.32710        0.07310
H          2.85490        0.83010       -1.51650
C          0.94190       -0.21650       -3.02210
C          2.30930        2.93540       -1.61340
C          3.46970        3.46370       -0.79880
C          3.40560        3.63690        0.52610
O         -0.28560        1.53120       -2.01220
Br         2.77530        3.10080       -3.49970
H          1.42710        3.58700       -1.43200
H          4.39050        3.74280       -1.30300
H          2.50730        3.40530        1.08750
H          4.26220        4.03200        1.06200
H          2.36560        0.86910        0.53270
F         -0.25690       -0.48750       -3.65910
F          1.90670        0.04060       -3.97750
F          1.31700       -1.32490       -2.28570
