18
TSA8_9_OH_CF3_Br
C          1.82120        0.08940       -0.18820
C          1.52670        0.78500       -1.31360
O          2.18170        0.69190        0.96240
H          1.74630       -0.99380       -0.18230
C          1.06950        0.06950       -2.56220
C          2.48720        4.66770       -2.55540
C          3.12490        3.90510       -1.66120
C          2.37200        3.04040       -0.69410
O          1.59270        2.14500       -1.40670
Br         3.47360        5.75050       -3.78310
H          1.40220        4.67990       -2.60080
H          4.21080        3.90640       -1.63340
H          1.71760        3.67830       -0.06280
H          3.12170        2.53610       -0.05580
H          2.37550        0.17040        1.75340
F         -0.18860        0.52510       -2.90990
F          1.94740        0.35620       -3.59110
F          1.01260       -1.30470       -2.40030
