18
TSA8_9_OH_CF3_Br
C          2.79620        1.20230       -1.46360
C          1.25630        1.22560       -1.16390
O          3.51460        1.04360       -0.26760
H          3.06540        0.36550       -2.14830
C          0.44190        0.52980       -2.26110
C          3.18340        2.53770       -2.10840
C          2.83300        3.70660       -1.17090
C          1.63160        3.35820       -0.27530
O          0.72070        2.53870       -0.97240
Br         5.05610        2.60010       -2.61820
H          2.58430        2.65090       -3.03630
H          3.67000        3.98890       -0.49620
H          1.13490        4.29330        0.05580
H          1.96110        2.84210        0.65640
H          3.33180        0.12160        0.05170
F         -0.89500        0.52970       -1.90750
F          0.58550        1.18620       -3.47000
F          0.85770       -0.78200       -2.40150
