20
TSA8_9_CF3_NH2_CN
C          2.21580        1.76360       -0.47830
C          0.99610        1.11260       -1.22240
C          2.25330        1.36040        1.01950
H          3.14330        1.33080       -0.91920
N          1.44600        0.34310       -2.38110
C          2.18400        3.28490       -0.75500
C          0.82660        3.90450       -0.33810
C         -0.31780        2.90000       -0.57730
O          0.00580        2.04430       -1.64900
C          3.34470        4.03510       -0.24660
H          2.22380        3.39400       -1.85470
H          0.77550        4.25430        0.71320
H         -1.25770        3.44670       -0.79200
H         -0.52470        2.29580        0.33540
F          3.55040        1.48120        1.50050
F          1.42130        2.14730        1.79770
F          1.86130        0.03520        1.15470
H          1.98270        0.96970       -3.02570
H          2.08200       -0.42050       -2.05480
N          4.24490        4.65070        0.13870
