17
TSA8_9_Cl_CBr3_I
C          2.95620       -1.06050       -0.97360
C          1.50760       -1.60340       -0.73530
Cl         2.89820        0.72740       -1.00850
H          3.63880       -1.34250       -0.14470
C          1.37820       -2.55340        0.46910
C          3.50070       -1.62560       -2.29430
C          2.55150       -1.31050       -3.46070
C          1.08730       -1.33040       -2.99250
O          0.94250       -2.20920       -1.89800
I          5.50780       -1.01500       -2.73330
H          3.52910       -2.73080       -2.18450
H          2.74500       -0.32420       -3.93450
H          0.43200       -1.64120       -3.83190
H          0.74880       -0.30600       -2.70610
Br         1.92660       -1.67380        2.11090
Br        -0.47860       -3.06720        0.69250
Br         2.43080       -4.16750        0.22870
