26
TSA8_9_Et_CHF2_CBr3
C          1.89290        0.11570       -0.21730
C          1.43650        0.89000       -1.24590
C          1.97330        0.39140        1.26630
H          2.24710       -0.88060       -0.47110
C          1.46260        0.30480       -2.63540
C          2.66000        4.88310       -0.11260
C          2.29540        3.60760        0.09820
C          0.89900        3.12020       -0.19310
O          0.92490        2.15850       -1.18180
C          4.06170        5.36310        0.15940
H          1.93080        5.59170       -0.49570
H          3.02840        2.90640        0.47580
H          0.28530        3.96450       -0.57330
H          0.36350        2.76000        0.70390
C          3.40720        0.21740        1.76030
H          1.33190       -0.35120        1.78730
H          1.63030        1.38150        1.57400
H          3.76970       -0.81050        1.54380
H          3.44470        0.37880        2.85850
H          4.08300        0.94810        1.26910
F          0.17560        0.26720       -3.13900
F          2.24370        1.10310       -3.44990
H          1.87580       -0.72620       -2.66180
Br         4.20900        7.24840       -0.26650
Br         4.51680        5.12350        2.02980
Br         5.33450        4.39290       -0.93790
