26
TSA8_9_Et_CHF2_CBr3
C          2.46600        1.67270       -0.35090
C          1.12370        1.35740       -1.11550
C          2.40600        0.97440        1.03270
H          3.28770        1.17920       -0.91540
C          1.36290        0.66940       -2.46140
C          2.66920        3.22800       -0.36450
C          1.42180        3.94670        0.20670
C          0.13640        3.17380       -0.09990
O          0.28130        2.48760       -1.31790
C          3.98400        3.86260        0.17320
H          2.67960        3.45360       -1.45520
H          1.44600        4.12390        1.30170
H         -0.71690        3.88070       -0.15220
H         -0.11240        2.45900        0.71940
C          3.77440        0.57340        1.59270
H          1.88370       -0.00060        0.90710
H          1.82030        1.57290        1.76060
H          4.28340       -0.11670        0.88640
H          3.63460        0.04020        2.55670
H          4.44590        1.42060        1.76770
F          0.15020        0.32560       -3.02980
F          2.04390        1.51500       -3.31900
H          1.95650       -0.25700       -2.31180
Br         4.09360        5.69980       -0.45530
Br         4.10770        3.98510        2.11560
Br         5.55140        2.95620       -0.53010
