21
TSA8_9_OMe_H_Me
C          1.33790       -0.18820       -0.09470
C          0.95890        0.94430        0.49900
O          1.64420       -1.27160        0.65620
H          1.36830       -0.23980       -1.18030
H          0.67770        1.80130       -0.10810
C         -0.64740        1.40010        4.81350
C         -0.72510        1.26240        3.48360
C          0.21890        1.96790        2.55390
O          0.90580        1.00420        1.84950
C         -1.57490        0.64820        5.71730
H          0.10000        2.05280        5.25620
H         -1.47590        0.60530        3.05120
H          0.94530        2.59210        3.11680
H         -0.36430        2.63220        1.87750
C          1.89440       -2.50650        0.10420
H          2.10790       -3.22980        0.91790
H          2.76950       -2.45340       -0.57540
H          1.00100       -2.85630       -0.45690
H         -1.43330       -0.44400        5.57080
H         -2.62890        0.91600        5.49430
H         -1.35190        0.89820        6.77520
