20
TSA8_9_CBr3_CHF2_Cl
C          1.44820       -0.07250        0.00180
C          1.79850       -1.02430        0.90290
C          2.16300        0.30920       -1.28120
H          0.53880        0.47910        0.22110
C          3.01850       -1.90870        0.79280
C         -1.09830       -2.98140        3.96890
C         -0.18340       -2.95820        2.99330
C         -0.19390       -1.90300        1.92510
O          0.99280       -1.20160        1.97960
Cl        -1.04550       -4.22250        5.20980
H         -1.88580       -2.23480        4.01380
H          0.59470       -3.71640        2.97090
H         -1.03670       -1.19590        2.07730
H         -0.32800       -2.39370        0.93370
Br         1.14370        1.69690       -2.17650
Br         3.92520        1.05410       -0.96600
Br         2.27920       -1.18120       -2.51650
F          4.17950       -1.16670        0.86250
F          3.03500       -2.81940        1.83420
H          2.99570       -2.48560       -0.15210
