20
TSA8_9_CBr3_CHF2_Cl
C          1.09950       -0.76280        1.53240
C          1.89370       -2.08370        1.26000
C          1.16570        0.32260        0.40050
H          1.55640       -0.34390        2.45500
C          3.37250       -2.04590        0.89020
C         -0.37970       -1.17820        1.86300
C         -0.43010       -2.62460        2.36590
C          0.09670       -3.53390        1.22210
O          1.16190       -2.97420        0.45640
Cl        -1.12780       -0.11490        3.09030
H         -1.00740       -1.15790        0.94610
H          0.22520       -2.70520        3.26200
H         -0.75210       -3.66960        0.51930
H          0.37200       -4.53490        1.61580
Br         0.06520        1.87640        0.79030
Br         2.94420        1.06870        0.16700
Br         0.58170       -0.37710       -1.31840
F          4.07040       -1.28920        1.81350
F          3.87700       -3.33290        0.90630
H          3.50950       -1.63380       -0.12920
