24
TSA8_9_Et_Me_CN
C          1.56090        0.03590       -0.09960
C          1.23220        0.69440       -1.26960
C          1.70750        0.51770        1.35300
H          1.66350       -1.04080       -0.17270
C          1.16740       -0.06150       -2.56640
C          1.71810        5.00100       -0.54880
C          1.70590        3.71490       -0.20640
C          0.48730        2.88860       -0.42570
O          0.85200        1.99350       -1.39610
C          2.98670        5.66260       -0.65360
H          0.80960        5.51090       -0.85810
H          2.62590        3.20980        0.08970
H         -0.35420        3.50330       -0.80730
H          0.03170        2.37880        0.43370
C          3.16010        0.32980        1.72160
H          1.08000       -0.07760        2.07000
H          1.48300        1.57060        1.57010
H          3.43780       -0.74160        1.61620
H          3.34120        0.67140        2.75640
H          3.78130        0.95580        1.04800
H          1.62780        0.50250       -3.41430
H          0.08950       -0.15240       -2.78880
H          1.64520       -1.06120       -2.51880
N          4.02550        6.16420       -0.72610
