24
TSA8_9_F_Et_OMe
C          2.52330       -0.23490        0.99110
C          2.36750        1.13730        1.67540
F          1.27810       -0.72000        0.62030
H          3.15740       -0.14580        0.08250
C          1.78710        2.18620        0.71990
C          3.19520       -1.19470        1.98480
C          2.38960       -1.19990        3.29570
C          2.23280        0.24460        3.78830
O          1.54670        1.01460        2.82220
O          3.26270       -2.48660        1.40810
H          4.21590       -0.78710        2.17960
H          1.38280       -1.64030        3.12460
H          3.21990        0.69890        4.03710
H          1.63700        0.23610        4.72410
C          1.73350        3.56220        1.37740
H          0.76310        1.88890        0.40460
H          2.43190        2.25510       -0.18260
H          1.07660        3.54340        2.27280
H          1.32550        4.30230        0.65700
H          2.75350        3.88230        1.67920
C          4.12790       -3.31770        2.15300
H          4.29810       -4.24930        1.57520
H          3.66250       -3.60750        3.11980
H          5.12880       -2.85590        2.30600
