21
TSA8_9_CCl3_OH_Me
C          1.39550       -0.72130        2.22320
C          2.53020       -1.71970        2.45280
C          1.26400       -0.30110        0.72340
H          1.69980        0.21290        2.75060
O          2.54010       -2.96290        1.92390
C          0.04910       -1.14020        2.90950
C         -0.59210       -2.38410        2.33450
C         -1.79410       -2.35210        1.74880
O          3.48030       -1.37720        3.13890
C          0.23930       -1.34210        4.42010
H         -0.65590       -0.28750        2.79820
H         -0.08300       -3.33770        2.40990
H         -2.35100       -1.42530        1.65490
H         -2.22950       -3.26460        1.35510
Cl         0.76900       -1.61320       -0.38300
Cl         0.08010        1.02470        0.53950
Cl         2.82680        0.33020        0.13090
H          1.84890       -3.30800        1.34930
H          0.65530       -0.42200        4.88250
H          0.92730       -2.18950        4.62660
H         -0.73840       -1.55880        4.90270
