21
TSA8_9_CCl3_OH_Me
C          1.49990       -0.13030        0.08280
C          1.72940       -0.90500        1.16470
C          2.14260       -0.30250       -1.27480
H          0.78520        0.68000        0.19700
O          2.59620       -1.94600        1.15750
C         -0.77750       -1.77250        4.94790
C         -0.02720       -2.02870        3.86720
C         -0.15380       -1.22620        2.60530
O          1.05930       -0.63780        2.30970
C         -0.64040       -2.59480        6.19160
H         -1.50280       -0.96330        4.93430
H          0.69200       -2.84350        3.88940
H         -0.92070       -0.42860        2.70830
H         -0.48010       -1.91020        1.78930
Cl         1.74650       -1.89860       -1.96670
Cl         1.51470        0.93840       -2.38960
Cl         3.91260       -0.09960       -1.17670
H          3.12100       -2.21400        0.39340
H          0.39440       -2.51530        6.58690
H         -0.86910       -3.65830        5.96880
H         -1.34970       -2.22920        6.96300
