19
TSA8_9_Me_NO2_I
C          1.80460       -0.07800       -0.05320
C          1.14090       -0.99120       -0.79480
C          1.99410        1.35530       -0.46970
H          2.23110       -0.35810        0.90480
N          1.00220       -2.33650       -0.30370
C         -0.16270       -0.81280       -5.29890
C         -0.49950       -0.46910       -4.05110
C         -0.14840       -1.32580       -2.86980
O          0.62080       -0.59000       -1.99320
I         -0.67930        0.42330       -6.92930
H          0.37950       -1.73190       -5.50060
H         -1.04460        0.45490       -3.88100
H          0.41200       -2.22750       -3.20110
H         -1.09160       -1.63380       -2.36990
H          1.53510        1.58490       -1.45330
H          3.07970        1.57740       -0.52850
H          1.53270        2.01670        0.29280
O          0.41720       -3.16550       -0.93070
O          1.52200       -2.67910        0.85740
