19
TSA8_9_Me_NO2_I
C          1.64390       -0.14260       -1.96570
C          1.03700       -1.11320       -0.92850
C          1.35400        1.29830       -1.50820
H          2.75010       -0.25480       -1.98180
N          1.63450       -2.43560       -0.91040
C          1.07370       -0.46880       -3.36450
C         -0.45240       -0.49780       -3.31430
C         -0.90210       -1.48160       -2.22650
O         -0.38760       -1.14400       -0.94570
I          1.76020        0.85200       -4.91040
H          1.42020       -1.47740       -3.67120
H         -0.86030        0.51280       -3.10480
H         -0.64560       -2.52490       -2.50040
H         -2.01010       -1.44770       -2.17690
H          1.80420        2.03430       -2.20460
H          1.80720        1.46750       -0.50780
H          0.26690        1.50090       -1.42470
O          1.58030       -3.15920       -1.85770
O          2.29350       -2.82220        0.15900
