17
TSA8_9_I_F_CF3
C          1.84020       -2.56130       -0.84660
C          0.44810       -2.88450       -0.38160
I          2.02000       -0.41710       -0.91580
H          2.55710       -2.93490       -0.08250
F          0.26410       -3.55920        0.78340
C          2.18340       -3.19510       -2.22150
C          3.61430       -2.85340       -2.58130
C          3.92880       -2.15020       -3.67350
O         -0.52260       -2.54590       -1.04120
C          2.03010       -4.73330       -2.23200
H          1.48870       -2.78040       -2.98770
H          4.41540       -3.19190       -1.92960
H          3.16250       -1.79190       -4.35290
H          4.96890       -1.92880       -3.89200
F          2.83570       -5.31020       -1.26480
F          0.71720       -5.10130       -1.99970
F          2.39580       -5.22970       -3.47170
