17
TSA8_9_I_F_CF3
C          1.54750       -3.17870       -0.86310
C          1.00510       -1.78110       -1.19660
I          3.09390       -2.99180        0.63720
H          0.73270       -3.79180       -0.42220
F          0.49250       -1.17030       -0.06680
C          2.00200       -3.81660       -2.20000
C          2.98640       -2.87670       -2.91370
C          2.34590       -1.48490       -3.03390
O          2.02450       -0.97620       -1.75360
C          2.56750       -5.24230       -2.06470
H          1.09720       -3.89670       -2.84560
H          3.93400       -2.79590       -2.33840
H          1.44540       -1.51080       -3.69020
H          3.07450       -0.80100       -3.51660
F          3.73810       -5.26050       -1.32970
F          1.63650       -6.06100       -1.45070
F          2.83610       -5.75110       -3.32330
