18
TSA8_9_Br_CHF2_OH
C          1.96070       -0.15850        0.25490
C          1.50010       -1.04350        1.17450
Br         2.55530       -0.50510       -1.53690
H          1.99440        0.89570        0.51170
C          1.05170       -0.52570        2.51530
C          4.15730       -4.34950        1.03240
C          3.55370       -3.24360        0.57330
C          2.10200       -3.24250        0.17080
O          1.39530       -2.39460        1.00110
O          5.45400       -4.33350        1.41640
H          3.60720       -5.28230        1.11310
H          4.11460       -2.31660        0.50350
H          1.67340       -4.26040        0.28690
H          1.97130       -2.98210       -0.89330
F         -0.27080       -0.86500        2.72400
F          1.82710       -1.10770        3.50200
H          1.15200        0.57700        2.59890
H          5.99110       -3.52790        1.39280
