19
TSA8_9_CCl3_F_NH2
C          1.56580       -2.03730       -1.01340
C          1.34840       -1.60620        0.42450
C          1.52500       -0.79680       -1.97110
H          2.60880       -2.42240       -1.06830
F          2.35470       -1.74440        1.32650
C          0.64680       -3.27080       -1.32460
C         -0.84290       -3.00130       -1.21650
C         -1.60650       -3.60620       -0.30040
O          0.28330       -1.13210        0.78830
N          0.94890       -3.86670       -2.62720
H          0.92290       -4.03090       -0.55630
H         -1.31780       -2.31460       -1.90600
H         -1.18490       -4.31050        0.40990
H         -2.67020       -3.39600       -0.25750
Cl         2.01560       -1.20040       -3.63860
Cl        -0.05800        0.02710       -2.03450
Cl         2.71600        0.41810       -1.41900
H          0.49510       -3.31610       -3.39030
H          0.53030       -4.82490       -2.66570
