21
TSA8_9_CHF2_I_OMe
C          1.75430       -0.12500       -0.05230
C          1.45090       -1.22040       -0.77520
C          1.85260        1.28710       -0.57570
H          1.93140       -0.25270        1.01130
I          1.28340       -3.07540        0.23020
C          3.99820       -2.62180       -3.97860
C          2.98090       -2.46290       -3.11110
C          2.23560       -1.15520       -3.05800
O          1.22360       -1.17690       -2.11310
O          4.74020       -3.75760       -4.11850
H          4.25880       -1.78610       -4.62220
H          2.67280       -3.25250       -2.44380
H          1.78010       -0.97260       -4.05460
H          2.94930       -0.33130       -2.84090
F          3.13810        1.75700       -0.38680
F          1.51420        1.40510       -1.91000
H          1.15040        1.92200        0.00300
C          4.62060       -4.96810       -3.45950
H          5.57030       -5.18470       -2.92880
H          3.79820       -5.00290       -2.72390
H          4.44580       -5.76830       -4.20790
