17
TSA8_9_Br_CH2F_Cl
C          2.04490        1.80240        0.78240
C          0.84840        2.37140        0.06000
Br         1.74380       -0.10220        1.05760
H          2.95060        1.91380        0.14590
C          1.00860        2.98850       -1.29940
C          2.28390        2.52270        2.12470
C          3.48910        1.95430        2.83000
C          3.40350        1.39890        4.04270
O         -0.25620        2.32750        0.58290
Cl         2.57690        4.26580        1.85890
H          1.37660        2.41850        2.76070
H          4.45680        1.99800        2.33790
H          2.45520        1.33620        4.56730
H          4.29260        1.00010        4.52000
F         -0.20720        3.44360       -1.77910
H          1.41360        2.23240       -2.00400
H          1.71420        3.84310       -1.23820
