17
TSA8_9_Br_CH2F_Cl
C          1.89640        0.22720       -0.00150
C          1.48090        1.39450        0.52520
Br         2.13910       -1.36730        1.03570
H          2.08400        0.14410       -1.06760
C          1.25840        2.59030       -0.35950
C          2.45610        4.04700        2.77940
C          3.02420        2.83990        2.69060
C          2.20930        1.58340        2.82810
O          1.22710        1.52200        1.85380
Cl         3.42590        5.50140        2.61550
H          1.38840        4.14550        2.95160
H          4.09350        2.75860        2.51980
H          1.72400        1.58230        3.82680
H          2.87680        0.70020        2.77040
F         -0.05750        3.00030       -0.26080
H          1.48390        2.36860       -1.42480
H          1.92020        3.41850       -0.03270
