21
TSA8_9_CH2F_Me_OH
C          2.65960       -1.25140       -0.22910
C          1.36490       -1.58170        0.48900
C          2.48960        0.06460       -1.01190
H          3.42510       -1.07480        0.56060
C          1.34550       -1.68470        1.98480
C          3.22180       -2.40970       -1.11100
C          2.41950       -2.73820       -2.35550
C          1.23890       -3.36240       -2.33610
O          0.32220       -1.71780       -0.13130
O          4.52020       -2.05040       -1.51350
H          3.29770       -3.32260       -0.47280
H          2.84640       -2.49410       -3.32470
H          0.77830       -3.68430       -1.41100
H          0.73200       -3.58370       -3.27010
F          3.68850        0.47170       -1.56810
H          2.13920        0.86590       -0.32620
H          1.73780       -0.05570       -1.82090
H          2.03020       -2.49430        2.31280
H          0.32160       -1.91040        2.35230
H          1.67840       -0.72240        2.42930
H          5.01430       -2.89250       -1.69810
