18
TSA8_9_CF3_H_OH
C          1.62760        1.70770        1.36130
C          1.30230        1.81400       -0.14030
C          1.35960        0.27130        1.87390
H          2.71520        1.89040        1.50720
H          1.70010        2.75030       -0.59370
C          0.84740        2.82770        2.09270
C         -0.64150        2.78350        1.72870
C         -0.77600        2.78810        0.19960
O         -0.09120        1.68740       -0.37700
O          1.02790        2.74490        3.48110
H          1.25800        3.79920        1.72670
H         -1.13100        1.88310        2.15110
H         -0.41210        3.74960       -0.22870
H         -1.85270        2.71440       -0.05950
F          2.15740       -0.61600        1.17250
F          1.68540        0.17260        3.21440
F          0.04170       -0.11060        1.70550
H          0.72610        3.61170        3.86000
