20
TSA8_9_Me_CF3_H
C          1.66230       -0.04360        0.08550
C          1.44850       -0.92860        1.09610
C          1.86400       -0.37540       -1.36830
H          1.66240        1.01940        0.30300
C          1.16770       -0.43950        2.49810
C          3.93220       -4.89290        0.79190
C          2.99210       -4.03780        1.20040
C          2.40240       -3.02800        0.26130
O          1.45410       -2.28180        0.93660
H          4.34820       -5.61460        1.48730
H          4.29270       -4.87840       -0.23230
H          2.65410       -4.07690        2.23250
H          1.91640       -3.55880       -0.58460
H          3.22870       -2.38660       -0.11700
H          1.76140       -1.44680       -1.60860
H          2.86360       -0.01900       -1.69260
H          1.08920        0.15450       -1.96030
F         -0.07000       -0.90620        2.89970
F          2.13310       -0.94220        3.35080
F          1.17030        0.94190        2.59470
