20
TSA8_9_Me_CF3_H
C          2.74210       -1.11220        0.25060
C          1.32930       -1.18030        0.87770
C          2.63250       -0.85720       -1.26390
H          3.30320       -0.22830        0.62710
C          1.26910       -0.89860        2.38730
C          3.54570       -2.38620        0.58380
C          2.66090       -3.62960        0.76430
C          1.29910       -3.47000        0.08660
O          0.55590       -2.33270        0.52560
H          4.07390       -2.24860        1.55310
H          4.33640       -2.55080       -0.17890
H          2.45450       -3.78920        1.84290
H          0.70830       -4.37820        0.32830
H          1.40430       -3.46920       -1.01350
H          2.10010       -1.64580       -1.81970
H          3.64840       -0.75890       -1.70300
H          2.09420        0.09880       -1.43990
F         -0.05330       -0.86200        2.78840
F          1.92870       -1.86380        3.12080
F          1.84040        0.33220        2.65320
