20
TSA8_9_CCl3_Me_I
C          1.46040       -0.44420       -0.06650
C          2.10970       -1.52740        0.44270
C          2.01850        0.55260       -1.06470
H          0.45080       -0.24690        0.27010
C          3.52990       -1.86880        0.07630
C         -0.62610       -4.64420        2.65600
C         -0.09070       -4.05510        1.58210
C          0.15620       -2.57600        1.52830
O          1.51020       -2.36240        1.34080
I         -0.94160       -6.73030        2.68780
H         -0.90620       -4.06530        3.53090
H          0.17920       -4.65940        0.72050
H         -0.16040       -2.08600        2.47410
H         -0.44970       -2.17210        0.69200
Cl         2.41490       -0.23400       -2.61420
Cl         0.78800        1.79940       -1.40590
Cl         3.45340        1.39700       -0.42680
H          3.84680       -2.78940        0.61310
H          4.22320       -1.05890        0.37190
H          3.61810       -2.07100       -1.00830
