20
TSA8_9_CCl3_Me_I
C          1.11470       -1.57010        0.03220
C          1.92490       -1.23280        1.35620
C          1.84850       -1.17020       -1.29260
H          0.20350       -0.93270        0.04770
C          3.39780       -1.65950        1.35000
C          0.65350       -3.04950        0.15990
C         -0.21030       -3.21600        1.42680
C          0.00030       -2.07840        2.43600
O          1.36460       -1.76040        2.56170
I         -0.41100       -3.98410       -1.46410
H          1.56570       -3.66820        0.28710
H         -1.29760       -3.22050        1.19680
H         -0.40150       -2.39530        3.42060
H         -0.57060       -1.16590        2.15160
Cl         3.17250       -2.28730       -1.74030
Cl         0.72360       -1.10570       -2.67710
Cl         2.49930        0.49040       -1.16720
H          3.49510       -2.75950        1.24500
H          3.86650       -1.35920        2.31090
H          3.96940       -1.14810        0.55370
