20
TSA8_9_H_CBr3_CF3
C          1.93700        2.35410        0.43280
C          0.82820        2.63830       -0.55520
H          1.67210        1.39270        0.92080
H          2.90330        2.20430       -0.09710
C          1.07450        2.63170       -2.05250
C          2.09400        3.44520        1.52770
C          3.11170        3.00080        2.56250
C          2.92400        1.91650        3.32310
O         -0.30190        2.82280       -0.12690
C          2.50650        4.81670        0.95160
H          1.12220        3.57980        2.05340
H          4.01780        3.58130        2.71660
H          2.03040        1.30860        3.22810
H          3.66910        1.63540        4.06030
Br         1.73380        0.89200       -2.59670
Br        -0.55680        2.98040       -3.05340
Br         2.37660        3.96710       -2.57590
F          3.71050        4.71900        0.27610
F          1.53640        5.29790        0.09140
F          2.64750        5.73180        1.98050
