20
TSA8_9_F_Me_CHF2
C          2.19280        0.45770        0.03360
C          1.46580        1.45490        0.57740
F          2.67020       -0.58040        0.76570
H          2.39350        0.44700       -1.03360
C          0.92660        2.55130       -0.29530
C          2.70440        3.66850        3.14120
C          3.07910        2.38820        2.99210
C          2.04920        1.29280        2.95430
O          1.17210        1.51880        1.90790
C          3.70130        4.78570        3.17190
H          1.64980        3.91370        3.24080
H          4.13030        2.13200        2.89410
H          1.48000        1.31500        3.90710
H          2.53100        0.30060        2.88340
H          1.34360        3.52070        0.05070
H         -0.17770        2.58880       -0.21350
H          1.20100        2.41440       -1.36310
F          4.58280        4.60690        4.22140
F          4.40090        4.82610        1.97970
H          3.16830        5.75080        3.30810
