20
TSA8_9_F_Me_CHF2
C          2.91950        2.17190        0.98880
C          1.54360        1.45630        0.79860
F          3.90560        1.22730        1.22850
H          3.20400        2.70930        0.05820
C          0.64470        2.25370       -0.14680
C          2.80690        3.12260        2.18990
C          2.45490        2.31140        3.45640
C          1.67930        1.02830        3.10640
O          0.81540        1.24780        2.01420
C          4.05230        3.99410        2.40320
H          1.95640        3.80950        1.98460
H          3.34660        1.99520        4.04070
H          1.10000        0.69790        3.99300
H          2.37360        0.18980        2.86660
H          0.41670        3.25610        0.27290
H         -0.30910        1.70730       -0.30200
H          1.13910        2.37480       -1.13370
F          5.16540        3.21330        2.66160
F          4.29200        4.76400        1.27850
H          3.88630        4.67500        3.26470
