20
TSA8_9_H_CF3_CF3
C          2.91170       -0.75170        2.34810
C          1.55120       -0.60310        1.59180
H          3.70670       -0.99940        1.61110
H          3.20500        0.20310        2.83450
C          0.63080        0.43670        2.24300
C          2.80990       -1.91570        3.34480
C          2.47060       -3.21440        2.57750
C          1.70290       -2.91730        1.27760
O          0.82580       -1.82890        1.46280
C          4.07480       -2.08040        4.20180
H          1.96360       -1.69490        4.02910
H          3.36680       -3.80610        2.28880
H          1.13740       -3.81970        0.96710
H          2.40780       -2.69100        0.44310
F          0.28520        0.05580        3.52670
F          1.26030        1.66760        2.28620
F         -0.52150        0.56120        1.48880
F          5.17500       -2.34080        3.40280
F          4.30910       -0.92310        4.92300
F          3.90580       -3.12710        5.09110
