15
TSA8_9_H_OH_F
C          2.25810       -0.23440        0.02330
C          1.36880       -1.17880       -0.30120
H          2.71980        0.37380       -0.74860
H          2.53170       -0.05920        1.05920
O          0.79330       -1.93750        0.66240
C         -1.12310       -1.75750       -4.18060
C         -0.91150       -1.50970       -2.88450
C          0.11810       -2.25820       -2.08880
O          1.05710       -1.36450       -1.61000
F         -2.06520       -1.05430       -4.86120
H         -0.55220       -2.51700       -4.70600
H         -1.49980       -0.74380       -2.38900
H          0.63760       -3.01190       -2.71920
H         -0.39940       -2.80030       -1.26820
H          0.99810       -1.82980        1.60270
