18
TSA8_9_I_CF3_CN
C          2.15010       -2.00930       -0.14520
C          1.30950       -1.92000        1.11280
I          1.84410       -0.13940       -1.21120
H          3.23260       -1.95390        0.10280
C          1.85400       -1.40790        2.41390
C          1.82590       -3.32770       -0.92910
C          1.08530       -3.01590       -2.19640
C         -0.23660       -2.83980       -2.18610
O          0.13180       -2.24600        1.07350
C          2.99270       -4.17470       -1.24100
H          1.19550       -3.99710       -0.30250
H          1.64410       -2.83510       -3.11450
H         -0.80080       -2.97370       -1.26870
H         -0.75150       -2.54100       -3.08890
F          1.85430       -2.42860        3.34510
F          3.13970       -0.91870        2.27260
F          1.03750       -0.38450        2.86140
N          3.86910       -4.90420       -1.43770
