16
TSA8_9_NO2_F_F
C          1.79630       -1.13900       -1.49300
C          1.30960       -1.49150       -0.10760
N          1.39880        0.22510       -1.82010
H          2.90850       -1.17080       -1.46150
F          2.20880       -1.82200        0.85560
C          1.39080       -2.16960       -2.58980
C         -0.09100       -2.33400       -2.84620
C         -0.91310       -2.96490       -2.00240
O          0.12740       -1.41160        0.18340
F          1.98840       -1.77610       -3.77620
H          1.81090       -3.16800       -2.33780
H         -0.50150       -1.96700       -3.78260
H         -0.55170       -3.39830       -1.07700
H         -1.96380       -3.07430       -2.25030
O          1.74720        1.12550       -1.11700
O          0.68840        0.49310       -2.89570
