16
TSA8_9_NO2_F_F
C          1.87210       -1.20160       -1.55970
C          1.19650       -1.73440       -0.28250
N          1.52700        0.20270       -1.74810
H          2.97640       -1.26130       -1.44100
F          1.70270       -2.96810        0.10230
C          1.45000       -2.10790       -2.73820
C         -0.07590       -2.23450       -2.79990
C         -0.59180       -2.68830       -1.42930
O         -0.21690       -1.77260       -0.41190
F          1.95520       -1.64110       -3.93910
H          1.86380       -3.12610       -2.56630
H         -0.54930       -1.26680       -3.06280
H         -0.24110       -3.71750       -1.19140
H         -1.69980       -2.73740       -1.47160
O          1.82280        0.99580       -0.90580
O          0.96180        0.63310       -2.85640
