14
TSA8_9_F_H_I
C          0.95960       -0.10790        1.65060
C          1.64980        0.92870        0.80930
F          1.91400       -0.96830        2.16570
H          0.26850       -0.69330        1.00580
H          1.41170        1.01470       -0.24590
C          0.16460        0.53060        2.80070
C         -0.91780        1.43720        2.27100
C         -0.95330        2.74090        2.56150
O          2.48160        1.67500        1.30120
I         -0.76220       -0.99240        3.98710
H          0.86500        1.08900        3.46110
H         -1.69010        1.01770        1.63300
H         -0.19770        3.19720        3.19360
H         -1.74660        3.36330        2.16100
