14
TSA8_9_F_H_I
C          2.13330        0.15430        0.00590
C          1.23750        1.02020        0.47940
F          2.77960       -0.70030        0.84210
H          2.35010        0.12490       -1.05700
H          0.73170        1.68970       -0.21110
C         -1.21560        1.16910        4.40200
C         -1.00200        1.04860        3.08800
C          0.01460        1.88570        2.36750
O          0.96470        1.05700        1.80600
I         -2.65470       -0.03630        5.36610
H         -0.65680        1.88450        4.99770
H         -1.57670        0.32410        2.52000
H          0.52310        2.58590        3.06500
H         -0.50960        2.49230        1.59520
