14
TSA8_9_F_H_I
C          1.00940       -0.01320        1.86810
C          1.28240        1.16570        0.91100
F          2.19140       -0.51050        2.38680
H          0.53250       -0.80490        1.25060
H          0.52300        1.21240        0.09590
C          0.08680        0.41550        3.02540
C         -0.87730        1.47600        2.51280
C         -0.02070        2.70630        2.11180
O          1.28150        2.39580        1.60520
I         -0.92280       -1.26610        3.87730
H          0.68870        0.89080        3.83230
H         -1.41920        1.05880        1.63510
H          0.14330        3.28210        3.04690
H         -0.57940        3.36200        1.41080
