22
TSA8_9_CBr3_OMe_OH
C          1.21870       -0.78020        1.59160
C          2.45670       -0.36830        2.38110
C          1.57120       -1.24450        0.13050
H          0.59960        0.13750        1.48670
O          3.70480       -0.55950        1.87960
C          0.41740       -1.80880        2.46120
C         -0.95070       -2.15570        1.93110
C         -1.90990       -1.23570        1.78380
O          2.31350        0.13960        3.48650
O          1.15040       -2.99610        2.62820
H          0.21980       -1.35630        3.46380
H         -1.17400       -3.18780        1.67520
H         -1.73510       -0.19540        2.03790
H         -2.88490       -1.52660        1.40610
Br         0.01150       -1.60000       -0.97300
Br         2.50020        0.18120       -0.81810
Br         2.69830       -2.83180        0.05480
C          4.86450       -0.23130        2.54830
H          5.73580       -0.49100        1.91270
H          4.93160       -0.80290        3.49860
H          4.88840        0.85870        2.76160
H          1.70310       -2.89030        3.44660
