19
TSA8_9_CN_OMe_H
C          2.07340       -1.75110        0.00620
C          2.46110       -1.76950        1.45910
C          2.63600       -0.67540       -0.83320
H          1.00970       -1.47600        0.09950
O          2.28640       -0.64460        2.19580
C          2.22690       -3.12340       -0.70870
C          1.02520       -3.30910       -1.58370
C         -0.17740       -3.40720       -0.99560
O          2.65170       -2.84080        2.02140
H          3.19020       -3.18340       -1.27150
H          2.22310       -3.98930       -0.01100
H          1.12200       -3.34190       -2.66210
H         -0.25510       -3.37790        0.09400
H         -1.08350       -3.50190       -1.57190
N          3.02700        0.14330       -1.54580
C          1.95790       -0.69160        3.53550
H          1.92620        0.33370        3.95370
H          2.69330       -1.30040        4.10300
H          0.94880       -1.14830        3.64520
