20
TSA8_9_I_I_Et
C          3.12210       -1.54220       -0.70980
C          1.64770       -1.32680       -0.48080
I          4.11730        0.27940       -0.11360
H          3.44530       -2.34800       -0.01690
I          0.60890       -2.50700        0.92910
C          3.38990       -2.02460       -2.16590
C          3.12430       -0.93220       -3.18270
C          2.16310       -1.04050       -4.10560
O          1.03700       -0.46780       -1.09800
C          4.78680       -2.66160       -2.38890
H          2.68290       -2.86860       -2.34280
H          3.72870       -0.03090       -3.16990
H          1.53140       -1.92150       -4.16070
H          2.00330       -0.23730       -4.81740
C          6.00090       -1.74690       -2.22650
H          4.81100       -3.06520       -3.42550
H          4.90610       -3.52260       -1.69550
H          5.94130       -0.87620       -2.91100
H          6.91950       -2.31950       -2.47430
H          6.10720       -1.40820       -1.18030
