18
TSA8_9_Br_CBr3_OH
C          1.86700       -0.22620       -0.02430
C          1.55010       -1.44230       -0.53870
Br         2.10140        1.39500       -1.02910
H          1.96670       -0.07980        1.04180
C          1.29690       -2.65090        0.34960
C          2.35350       -2.41180       -5.04750
C          2.65750       -2.31520       -3.74460
C          2.18900       -1.16500       -2.90150
O          1.40640       -1.66130       -1.87750
O          2.78230       -3.45750       -5.78910
H          1.75350       -1.64600       -5.52870
H          3.25890       -3.08730       -3.27280
H          1.58740       -0.44940       -3.50240
H          3.09430       -0.65480       -2.51390
Br         1.46260       -2.37390        2.27320
Br        -0.49630       -3.30760        0.01990
Br         2.55000       -4.04790       -0.13420
H          3.31740       -4.17340       -5.41670
