22
TSA8_9_NO2_CH2F_CH2F
C          2.55980       -1.29040       -1.50680
C          1.69560       -1.51990       -0.28410
N          2.69930        0.13630       -1.76060
H          3.56850       -1.70970       -1.28090
C          2.27580       -2.19600        0.92590
C          2.03130       -2.07260       -2.74610
C          0.66060       -1.61520       -3.20600
C         -0.40020       -2.42810       -3.19280
O          0.52920       -1.15390       -0.27420
C          3.01950       -1.96640       -3.91660
H          1.98580       -3.14720       -2.45450
H          0.52630       -0.60290       -3.57160
H         -0.32140       -3.45230       -2.84250
H         -1.36330       -2.06490       -3.53680
O          3.77860        0.64540       -1.71420
O          1.64410        0.89160       -1.98140
F          1.32900       -2.31110        1.92880
H          3.13300       -1.60160        1.30590
H          2.63220       -3.21020        0.64850
F          2.58750       -2.74150       -4.97910
H          4.02030       -2.33320       -3.60290
H          3.11900       -0.91320       -4.25570
