24
TSA8_9_OMe_Cl_Et
C          2.80080       -0.58760        1.17420
C          1.45970        0.11160        1.17930
O          2.73050       -1.73300        0.34060
H          3.57170        0.13850        0.81910
Cl         1.33670        1.78240        0.64960
C          3.21700       -0.99200        2.61680
C          2.31390       -2.07610        3.17320
C          1.54910       -1.87970        4.25180
O          0.44900       -0.47590        1.53240
C          4.70620       -1.40700        2.73370
H          3.12710       -0.07560        3.24510
H          2.27860       -3.04450        2.68310
H          1.54530       -0.92930        4.77450
H          0.91350       -2.68110        4.61630
C          2.95090       -1.38570       -1.01020
H          4.03910       -1.29480       -1.21240
H          2.41300       -0.45800       -1.31010
H          2.54430       -2.19690       -1.64920
C          5.12400       -2.65060        1.94540
H          4.93070       -1.59190        3.80770
H          5.34330       -0.55770        2.40280
H          4.54120       -3.54000        2.26410
H          6.19810       -2.85670        2.13860
H          5.00670       -2.49550        0.85640
