24
TSA8_9_OMe_Cl_Et
C          2.91830       -0.51330        1.26280
C          1.53790        0.21810        1.38850
O          2.76180       -1.80040        0.68960
H          3.62560        0.08900        0.64480
Cl         1.79540        1.98380        1.34100
C          3.48540       -0.64860        2.68930
C          2.52180       -1.48440        3.56230
C          1.06970       -1.36450        3.06350
O          0.80560       -0.06600        2.58310
C          4.95870       -1.11480        2.78150
H          3.47950        0.37870        3.11710
H          2.75380       -2.56790        3.59200
H          0.37850       -1.61090        3.89570
H          0.85370       -2.10590        2.26140
C          2.34150       -1.72140       -0.65990
H          2.95480       -2.42140       -1.26330
H          2.45730       -0.71510       -1.12560
H          1.27550       -2.02350       -0.72810
C          5.25980       -2.50920        2.22240
H          5.26760       -1.09400        3.84940
H          5.59430       -0.38480        2.23280
H          4.68750       -3.29500        2.75360
H          6.34010       -2.72720        2.35860
H          5.04530       -2.56000        1.13680
