17
TSA8_9_Cl_H_CHF2
C          1.98760       -0.12800        2.32840
C          2.29090       -0.57660        0.92440
Cl         0.37600        0.65020        2.32670
H          2.73990        0.63750        2.61890
H          3.14480       -0.16210        0.39850
C          2.04400       -1.31120        3.32890
C          3.41060       -1.96390        3.28680
C          3.57380       -3.24400        2.93850
O          1.58710       -1.40480        0.36740
C          1.75150       -0.85570        4.77110
H          1.26110       -2.04990        3.04200
H          4.28640       -1.37520        3.54590
H          2.72580       -3.86710        2.67170
H          4.56830       -3.67750        2.91890
F          1.78730       -1.94290        5.62710
F          2.68240        0.07980        5.19090
H          0.74040       -0.40440        4.83950
