21
TSA8_9_NO2_CF3_NO2
C          2.08090       -0.05950       -0.17910
C          1.62260       -1.34420       -0.35560
N          1.86130        1.12010       -0.95840
H          2.70470        0.11370        0.69260
C          1.98780       -2.39490        0.67710
C          1.84930       -1.98400       -4.62630
C          1.66440       -1.24720       -3.51550
C          0.46470       -1.45190       -2.62370
O          0.85610       -1.86260       -1.36720
N          2.97710       -1.80840       -5.47670
H          1.11810       -2.74290       -4.89230
H          2.39270       -0.49040       -3.24480
H         -0.17650       -2.25670       -3.04190
H         -0.20490       -0.57860       -2.57590
O          2.40470        2.12870       -0.62330
O          1.00140        1.18020       -1.94200
F          0.82580       -2.92100        1.21090
F          2.68940       -3.41010        0.05320
F          2.76170       -1.90930        1.71850
O          3.81310       -0.99050       -5.23330
O          3.10260       -2.56060       -6.54790
