21
TSA8_9_NO2_CF3_NO2
C          2.51790       -0.98810       -1.74700
C          1.34560       -1.46970       -0.83030
N          2.56030        0.46650       -1.76490
H          3.49310       -1.36400       -1.35790
C          1.83320       -2.25880        0.38660
C          2.33930       -1.59540       -3.15710
C          0.93000       -1.33190       -3.71520
C         -0.12520       -1.44520       -2.59980
O          0.36810       -2.23060       -1.53380
N          3.37210       -1.17870       -4.08570
H          2.41080       -2.69920       -3.01900
H          0.80870       -0.35200       -4.22520
H         -1.05090       -1.89360       -3.01500
H         -0.42570       -0.43880       -2.22590
O          3.53550        1.03730       -1.37930
O          1.52870        1.16990       -2.18020
F          0.75400       -2.59320        1.18340
F          2.46820       -3.41840       -0.02300
F          2.71360       -1.49160        1.12770
O          3.47800       -0.03290       -4.40650
O          4.19570       -2.07020       -4.59370
