22
TSA8_9_CBr3_Me_NO2
C          1.58250       -1.50300        1.41210
C          2.86400       -2.34990        1.31550
C          1.29790       -0.52940        0.20720
H          1.81930       -0.82010        2.25860
C          3.73370       -2.53810        0.10240
C          0.30580       -2.30310        1.89870
C         -0.50650       -2.95860        0.79730
C         -1.78360       -2.61850        0.58290
O          3.28380       -2.85910        2.34550
N          0.60890       -3.30970        2.90250
H         -0.34730       -1.54180        2.37920
H         -0.05040       -3.72520        0.18000
H         -2.27700       -1.86120        1.18830
H         -2.35520       -3.09650       -0.20420
Br        -0.20300        0.64540        0.59690
Br         2.80620        0.66890       -0.07530
Br         0.89350       -1.38650       -1.50080
H          3.83070       -3.62350       -0.10830
H          4.74490       -2.13010        0.31930
H          3.36700       -2.04330       -0.80580
O          1.15530       -4.32910        2.59880
O          0.14960       -3.16870        4.12620
