17
TSA8_9_Br_Br_CHF2
C          3.23180        1.66610        0.55700
C          1.75650        1.53310        0.27810
Br         4.06880       -0.08100        0.32620
H          3.65550        2.33750       -0.22000
Br         0.96610        2.48450       -1.18090
C          3.49800        2.30910        1.94750
C          3.01110        1.42900        3.08000
C          2.05400        1.82490        3.92490
O          1.05170        0.81210        0.96710
C          4.98530        2.64650        2.16730
H          2.95300        3.28090        1.96570
H          3.45210        0.44570        3.21660
H          1.58500        2.79900        3.82810
H          1.73240        1.16660        4.72550
F          5.77340        1.50960        2.18750
F          5.43840        3.49620        1.17370
H          5.10290        3.16510        3.14300
