24
TSA8_9_Et_OMe_Cl
C          1.88950       -0.04920       -0.12720
C          1.66200        0.37570       -1.39360
C          1.78760        0.68670        1.17900
H          2.19330       -1.09000       -0.02120
O          1.82620       -0.55620       -2.36200
C          3.69760        3.87610       -2.53570
C          3.20850        2.99590       -1.65780
C          1.73800        2.88000       -1.38250
O          1.28430        1.63640       -1.77940
Cl         5.42430        3.96130       -2.83900
H          3.03850        4.54520       -3.08050
H          3.88890        2.33120       -1.13010
H          1.17590        3.63860       -1.97150
H          1.52630        3.11500       -0.33410
C          3.16520        0.72750        1.83380
H          1.08350        0.13600        1.83850
H          1.39180        1.70150        1.09740
H          3.54850       -0.30410        1.99150
H          3.10440        1.23750        2.81820
H          3.87920        1.28070        1.18760
C          2.08550       -0.24110       -3.67610
H          2.11970       -1.17340       -4.27490
H          3.07800        0.25570       -3.74290
H          1.30270        0.43160       -4.09050
