23
TSA8_9_Et_Br_Me
C          1.74060        0.15860        0.18820
C          1.29880        0.70700        1.34950
C          2.00020       -1.28200       -0.18390
H          1.92480        0.85490       -0.62590
Br         1.07210        2.60820        1.35330
C          3.12620       -1.72380        4.42310
C          2.62660       -1.46080        3.20670
C          1.15810       -1.19380        2.99330
O          0.96640        0.08840        2.52200
C          4.59070       -1.96930        4.61750
H          2.47410       -1.75730        5.29130
H          3.29900       -1.42820        2.35820
H          0.62470       -1.26930        3.96510
H          0.66920       -1.93830        2.33880
C          3.43850       -1.45400       -0.66370
H          1.31840       -1.54760       -1.01980
H          1.82310       -2.00360        0.61800
H          3.63810       -0.79320       -1.53460
H          3.60300       -2.50690       -0.97650
H          4.15420       -1.20680        0.14780
H          5.16900       -1.07750        4.29480
H          4.91060       -2.85100        4.02380
H          4.79920       -2.16210        5.69090
