23
TSA8_9_Et_Br_Me
C          2.53160       -0.28390        1.68260
C          1.09870        0.32190        1.88640
C          2.49440       -1.26490        0.47680
H          3.20660        0.54630        1.37810
Br         1.19990        2.25270        2.07930
C          2.98160       -0.85960        3.05420
C          1.97800       -1.91750        3.55230
C          0.54440       -1.56870        3.12430
O          0.39220       -0.17330        3.02350
C          4.41620       -1.37810        3.16250
H          2.92050        0.00300        3.75590
H          2.19680       -2.94760        3.19610
H         -0.16790       -1.98070        3.86850
H          0.27160       -2.04670        2.15720
C          3.85940       -1.57450       -0.14440
H          1.92380       -0.76600       -0.33820
H          1.96830       -2.20770        0.72400
H          4.36120       -0.63260       -0.45310
H          3.71050       -2.20030       -1.04980
H          4.52890       -2.13460        0.52310
H          5.13340       -0.61020        2.80300
H          4.55300       -2.32490        2.61070
H          4.64690       -1.60170        4.22610
