17
TSA8_9_CN_F_NO2
C          1.63720        0.06620       -0.03660
C          1.46230        1.41420       -0.03590
C          1.82160       -0.81040        1.09130
H          1.59920       -0.43140       -0.99620
F          1.47700        2.00550       -1.25000
C          3.03930        2.56120        3.88920
C          2.58890        1.78700        2.89030
C          1.18890        1.92250        2.37080
O          1.25520        2.24060        1.03560
N          4.34620        2.42160        4.43740
H          2.37920        3.30940        4.31580
H          3.23920        1.04170        2.43970
H          0.62690        2.72140        2.92440
H          0.61090        0.98800        2.51570
N          1.96870       -1.49540        2.01170
O          5.09550        1.57710        4.04680
O          4.70480        3.18590        5.44550
