19
TSA8_9_F_CN_OMe
C          2.20920       -0.87470       -1.09020
C          1.21830       -1.50120       -0.07250
F          1.63080        0.27360       -1.60390
H          3.17590       -0.60080       -0.61320
C          1.59750       -1.33670        1.33560
C          2.47400       -1.87540       -2.23170
C          1.11560       -2.41980       -2.75510
C          0.21270       -2.85510       -1.57690
O          0.92870       -2.85390       -0.35840
O          3.42760       -1.34310       -3.15470
H          2.97770       -2.75530       -1.77210
H          0.54130       -1.65500       -3.32030
H         -0.19010       -3.86800       -1.77680
H         -0.67920       -2.18670       -1.49520
N          1.87570       -1.21690        2.45280
C          3.03290       -1.15850       -4.50310
H          3.76420       -1.67850       -5.15660
H          2.05000       -1.54920       -4.80860
H          3.06450       -0.07480       -4.73730
