14
TSA8_9_I_H_F
C          2.06100        1.63950       -0.78850
C          0.97020        1.51700       -1.81430
I          1.46130        0.58280        0.98510
H          2.97520        1.14970       -1.18960
H          1.17170        1.02380       -2.75960
C          2.36810        3.11640       -0.48990
C          3.50760        3.24200        0.48760
C          3.36610        3.85590        1.66630
O         -0.14460        1.96570       -1.59700
F          2.73040        3.76000       -1.66110
H          1.45240        3.60670       -0.09030
H          4.47430        2.82200        0.22450
H          2.41630        4.28870        1.96510
H          4.21000        3.92760        2.34450
