14
TSA8_9_I_H_F
C          2.35060        1.51040       -0.89100
C          0.94780        1.80440       -0.29090
I          3.49360        0.18270        0.36390
H          2.22850        0.95380       -1.84540
H          0.25510        1.94490       -1.14830
C          3.06160        2.84180       -1.12800
C          3.19680        3.62300        0.18720
C          2.05370        3.28520        1.16170
O          0.85790        3.01600        0.46420
F          4.29910        2.66630       -1.72140
H          2.42260        3.43830       -1.81540
H          4.15430        3.41980        0.71410
H          1.90790        4.13610        1.85830
H          2.30820        2.41440        1.80410
