17
TSA8_9_H_H_CH2F
C          2.30250       -0.14600       -0.16250
C          1.32770       -0.47290       -1.00940
H          2.85540        0.77960       -0.28810
H          2.55020       -0.80430        0.66370
H          0.78600       -1.40370       -0.86110
C         -1.24460        2.01380       -3.94780
C         -0.97790        1.25570       -2.87460
C         -0.00480        0.11410       -2.92990
O          1.02090        0.35350       -2.03740
C         -2.21620        3.15170       -3.86740
H         -0.75360        1.81440       -4.89630
H         -1.47440        1.46510       -1.93130
H          0.42850        0.00430       -3.94730
H         -0.54900       -0.82580       -2.68640
F         -3.46670        2.68170       -3.50890
H         -2.28830        3.65190       -4.85570
H         -1.87010        3.89200       -3.11530
