22
TSA8_9_NO2_Cl_Et
C          2.39590       -2.03160       -0.19650
C          1.12380       -1.32960        0.32800
N          2.87240       -1.32660       -1.37190
H          3.16530       -2.00230        0.60940
Cl         1.44080        0.38360        0.71430
C          2.04470       -3.51520       -0.51890
C          1.34150       -4.13160        0.70340
C          0.16610       -3.24730        1.12530
O          0.64030       -1.96990        1.48840
C          3.24770       -4.42130       -0.88180
H          1.31480       -3.53790       -1.35960
H          2.05090       -4.21300        1.55730
H         -0.32210       -3.70750        2.00940
H         -0.60750       -3.18290        0.32520
O          3.93740       -0.78610       -1.35630
O          2.10880       -1.22200       -2.43930
C          3.96740       -4.06130       -2.18040
H          2.86070       -5.45660       -1.01390
H          3.98380       -4.43380       -0.04860
H          3.25140       -4.04360       -3.02890
H          4.74490       -4.82650       -2.38850
H          4.48750       -3.09070       -2.10380
