21
TSA8_9_OH_CBr3_CH2F
C          2.00790        1.06070       -1.92340
C          0.87410        0.38360       -2.66500
O          1.64110        1.14800       -0.56770
H          2.92740        0.43560       -2.03400
C          1.05550       -0.97180       -3.32170
C          2.30340        2.48440       -2.46220
C          3.41950        3.10710       -1.65280
C          3.24180        4.22580       -0.94310
O         -0.21860        0.93160       -2.69500
C          2.70860        2.47700       -3.94340
H          1.37800        3.09660       -2.36370
H          4.39630        2.63090       -1.64680
H          2.28200        4.73260       -0.92180
H          4.06630        4.64320       -0.37420
H          2.39560        0.79340       -0.02840
Br         1.56070       -2.28150       -1.98450
Br        -0.58310       -1.59330       -4.16490
Br         2.43150       -0.92110       -4.68590
F          2.94550        3.76930       -4.37900
H          1.89390        2.05130       -4.56510
H          3.62930        1.87320       -4.09310
