21
TSA8_9_OH_CBr3_CH2F
C          2.80790        1.02150       -2.22090
C          1.34640        0.78400       -1.69990
O          3.65170        1.27280       -1.12720
H          3.19430        0.13870       -2.77910
C          0.66150       -0.47080       -2.27380
C          2.81090        2.24160       -3.16350
C          2.24990        3.48110       -2.43580
C          1.16950        3.07710       -1.42030
O          0.49810        1.92040       -1.86760
C          4.18040        2.52610       -3.79460
H          2.11060        2.00640       -3.99320
H          3.01820        4.06890       -1.88770
H          0.45490        3.91430       -1.28230
H          1.62040        2.89110       -0.41630
H          3.76120        0.40920       -0.65010
Br         1.67700       -2.07120       -1.85170
Br        -1.08660       -0.68090       -1.46090
Br         0.42400       -0.36000       -4.19780
F          5.12060        2.84240       -2.82950
H          4.09690        3.37580       -4.50520
H          4.52840        1.63430       -4.35800
