17
TSA8_9_NO2_I_OH
C          2.05000        0.03510        0.08770
C          1.31100        0.56290        1.07950
N          2.34360       -1.35560       -0.02490
H          2.44230        0.70650       -0.67140
I          0.98570        2.66830        1.05430
C         -1.15580       -0.71850        5.05030
C         -0.36670       -0.90770        3.98390
C         -0.01720        0.23090        3.07370
O          0.79390       -0.22390        2.05690
O         -1.47100       -1.73840        5.87890
H         -1.55410        0.26900        5.26280
H          0.02860       -1.89880        3.77480
H          0.51450        1.01130        3.66020
H         -0.95060        0.65740        2.64230
O          3.00500       -1.74100       -0.94000
O          1.89590       -2.22830        0.85400
H         -1.14170       -2.63820        5.74320
