20
TSA8_9_H_Et_Cl
C          2.02780        0.00740       -0.26110
C          1.65040        0.45410       -1.47550
H          2.27740        0.66770        0.55830
H          2.08030       -1.05710       -0.05390
C          1.29240       -0.53600       -2.55690
C          2.32670        4.25470       -3.14050
C          2.87900        3.71230       -2.04940
C          2.07210        2.87100       -1.10520
O          1.56130        1.77990       -1.78890
Cl         3.28990        5.23750       -4.23110
H          1.27680        4.09580       -3.36670
H          3.93090        3.88420       -1.83750
H          1.23230        3.47860       -0.70690
H          2.72900        2.57890       -0.26380
C         -0.14740       -0.34230       -3.02190
H          1.41070       -1.58480       -2.20520
H          1.97700       -0.38340       -3.41850
H         -0.84970       -0.51340       -2.17960
H         -0.37790       -1.06930       -3.82890
H         -0.29420        0.68480       -3.41910
