24
TSA8_9_CHF2_OMe_CCl3
C          3.00730       -0.05840       -1.10780
C          1.57210       -0.41770       -1.54850
C          2.90880        1.00090        0.01220
H          3.46550       -0.94800       -0.62540
O          1.13210       -1.76190       -1.64130
C          3.80600        0.31860       -2.40090
C          3.01110        1.34120       -3.23520
C          1.59760        0.80960       -3.52280
O          0.87360        0.52720       -2.33860
C          5.29240        0.74370       -2.23500
H          3.84270       -0.61090       -3.00840
H          2.94890        2.32220       -2.72430
H          1.63210       -0.07380       -4.18890
H          1.05060        1.59230       -4.08770
F          4.13590        1.22120        0.60560
F          2.37560        2.19670       -0.43030
H          2.24440        0.60830        0.81220
C          1.93230       -2.51760       -2.51980
H          1.50570       -3.53990       -2.57570
H          2.96620       -2.63610       -2.13390
H          1.91320       -2.12330       -3.55260
Cl         6.19190       -0.45300       -1.26300
Cl         6.06970        0.79860       -3.84280
Cl         5.51300        2.36680       -1.51740
