22
TSA8_9_NH2_CF3_Me
C          2.02170       -0.05650        2.43020
C          2.60010       -0.77650        1.16130
N          1.47190        1.25650        2.07570
H          1.18440       -0.64820        2.86470
C          2.03970       -2.19270        0.99920
C          3.13380        0.06240        3.49180
C          4.36820        0.77930        2.91130
C          4.57120        0.41850        1.42960
O          4.02590       -0.85290        1.15720
C          2.66110        0.71790        4.79180
H          3.44740       -0.97790        3.73290
H          4.33100        1.88750        2.99350
H          5.65530        0.43280        1.19460
H          4.11390        1.17800        0.75550
H          2.19190        1.88170        1.65350
H          0.70020        1.13000        1.38080
F          2.54370       -2.75800       -0.15760
F          2.40340       -2.97720        2.07980
F          0.66020       -2.15140        0.90620
H          1.80590        0.14950        5.21560
H          2.34130        1.76590        4.61080
H          3.48540        0.71900        5.53640
