16
TSA8_9_CN_OH_H
C          1.63170        0.00790        0.06570
C          1.68770       -0.49740        1.33780
C          1.74810       -0.73990       -1.16440
H          1.42860        1.06410       -0.08580
O          1.54420        0.36040        2.35780
C          1.56750       -4.97040       -0.04020
C          2.06470       -3.89470        0.58060
C          1.15780       -2.83910        1.11770
O          1.88260       -1.80620        1.66750
H          2.27170       -5.71020       -0.40730
H          0.48630       -5.11690       -0.16440
H          3.14080       -3.78370        0.71870
H          0.49560       -3.26970        1.90510
H          0.49970       -2.45590        0.31740
N          1.84420       -1.35530       -2.13950
H          2.15190        0.25700        3.09810
