20
TSA8_9_F_CH2F_Me
C          2.17500        0.27300       -0.38690
C          1.49190        1.27300       -0.98030
F          2.57390        0.33300        0.91000
H          2.40090       -0.63660       -0.93440
C          1.03670        1.12800       -2.40570
C          2.70990        4.65390       -1.43710
C          3.06810        3.83540       -0.43440
C          2.02240        3.19970        0.43930
O          1.17270        2.43010       -0.33770
C          3.72800        5.29720       -2.32420
H          1.65800        4.86020       -1.61720
H          4.11800        3.62910       -0.24620
H          1.43360        4.00680        0.92310
H          2.49420        2.60800        1.24660
F         -0.33750        1.25540       -2.47570
H          1.32990        0.14840       -2.84190
H          1.50480        1.93250       -3.01170
H          4.31560        4.51790       -2.85290
H          4.41000        5.93350       -1.72230
H          3.21540        5.93240       -3.07730
