21
TSA8_9_OMe_Br_CCl3
C          0.40530        0.59270       -1.75310
C          0.83400       -0.67810       -0.97280
O          1.51150        1.46010       -1.92940
H         -0.40840        1.07620       -1.16340
Br        -0.41090       -1.22800        0.42770
C         -0.16130        0.21460       -3.15270
C         -0.93100       -1.09900       -3.00310
C          0.08650       -2.19780       -2.61660
O          1.18450       -1.75530       -1.81720
C         -1.01430        1.32860       -3.81710
H          0.69210       -0.00140       -3.83680
H         -1.70850       -0.97300       -2.21850
H          0.52750       -2.54990       -3.57230
H         -0.42860       -3.06440       -2.15110
C          1.74250        2.20960       -0.75520
H          2.57760        2.91380       -0.95040
H          2.05450        1.55310        0.08560
H          0.85990        2.83000       -0.48370
Cl        -0.05870        2.81480       -4.07050
Cl        -1.57200        0.78710       -5.42500
Cl        -2.45810        1.74920       -2.84990
