20
TSA8_9_CF3_I_CCl3
C          2.81130        0.56860        1.14990
C          1.39590        1.00380        0.82540
C          3.01920       -0.88480        0.65780
H          3.47320        1.20710        0.52780
I          1.05960        2.57630       -0.54420
C          3.13100        0.89150        2.65960
C          2.22880        0.12840        3.61620
C          1.33520        0.74570        4.39550
O          0.43340        0.45020        1.33440
C          4.61830        0.74940        3.11190
H          2.91190        1.98110        2.75220
H          2.30860       -0.95110        3.68300
H          1.21630        1.82440        4.37140
H          0.71220        0.16570        5.06850
F          4.34880       -1.24430        0.71170
F          2.26680       -1.78340        1.39090
F          2.63200       -0.97740       -0.66880
Cl         4.82050        1.51870        4.71300
Cl         5.17480       -0.93910        3.30440
Cl         5.72510        1.60000        1.99860
