20
TSA8_9_I_CCl3_CCl3
C          1.81030       -0.19310       -0.02260
C          1.53900       -1.42730       -0.52000
I          2.06690        1.60970       -1.12030
H          1.87270       -0.02430        1.04400
C          1.28970       -2.62460        0.38470
C          2.58200       -2.56760       -4.92330
C          2.81080       -2.38950       -3.61250
C          2.26980       -1.21130       -2.85900
O          1.44390       -1.67920       -1.85670
C          3.12520       -3.76170       -5.66510
H          1.98880       -1.83660       -5.46630
H          3.40240       -3.11710       -3.06300
H          1.68680       -0.54000       -3.52580
H          3.14110       -0.66120       -2.44820
Cl         2.48630       -3.88790        0.00230
Cl         1.38950       -2.30550        2.14450
Cl        -0.33460       -3.27560        0.05060
Cl         2.63690       -3.68750       -7.37690
Cl         4.90690       -3.78610       -5.58820
Cl         2.48580       -5.27150       -4.96270
