20
TSA8_9_I_CCl3_CCl3
C          2.54650       -2.77010       -1.90780
C          1.26270       -2.06700       -1.39480
I          4.31250       -2.01320       -0.90960
H          2.48560       -3.85530       -1.69100
C          0.76740       -2.35140        0.03900
C          2.52650       -2.57920       -3.45560
C          2.41520       -1.07870       -3.78470
C          1.20450       -0.48570       -3.04590
O          1.33000       -0.67850       -1.65100
C          3.64680       -3.28410       -4.27510
H          1.57880       -3.05410       -3.80240
H          3.33740       -0.54330       -3.47250
H          0.25050       -0.92160       -3.42310
H          1.16210        0.60390       -3.25330
Cl         0.67170       -4.10430        0.35170
Cl         1.77050       -1.58860        1.30040
Cl        -0.87980       -1.69380        0.20030
Cl         3.27420       -3.14640       -6.01680
Cl         5.28070       -2.60040       -4.05150
Cl         3.70780       -5.02680       -3.89370
