19
TSA8_9_Me_NO2_Br
C          2.61110        0.67270       -1.05570
C          1.44630       -0.11140       -1.65130
C          2.31060        1.00010        0.41610
H          3.50370        0.01380       -1.06940
N          1.61440       -1.37540       -2.14000
C          3.01970        1.93790       -1.87260
C          2.09060        3.13250       -1.77190
C          0.88130        3.19440       -2.33410
O          0.33010        0.38730       -1.65820
Br         4.78250        2.52000       -1.27010
H          3.16240        1.66670       -2.94150
H          2.43680        4.01430       -1.23960
H          0.47830        2.38230       -2.92200
H          0.28660        4.09620       -2.22450
H          1.42140        1.66180        0.49770
H          3.17300        1.50630        0.89590
H          2.10430        0.06450        0.97850
O          0.68090       -1.97410       -2.58460
O          2.79500       -1.95490       -2.13060
