19
TSA8_9_Me_NO2_Br
C          1.87410       -0.02040       -0.11790
C          1.52970       -0.15590       -1.43590
C          1.92480        1.19340        0.77130
H          2.15160       -0.91960        0.42300
N          1.54370       -1.46710       -2.00910
C          3.23690        3.38370       -3.16500
C          2.68830        2.65860       -2.18420
C          1.24280        2.22860       -2.22620
O          1.15660        0.85320       -2.28550
Br         5.07920        3.88680       -3.08000
H          2.65430        3.69270       -4.02760
H          3.30800        2.36420       -1.34470
H          0.76390        2.62650       -3.14590
H          0.63960        2.63640       -1.39600
H          1.64340        2.14880        0.32640
H          2.95670        1.30450        1.16370
H          1.24180        1.02600        1.63040
O          1.24380       -1.61250       -3.15610
O          1.89030       -2.52310       -1.30310
