19
TSA8_9_Me_NO2_Br
C          2.62140        0.74330       -1.06150
C          1.27530        0.20880       -1.65790
C          2.40340        1.22940        0.38100
H          3.36950       -0.07860       -1.00250
N          1.43840       -1.14260       -2.16010
C          3.17240        1.83990       -1.99150
C          2.14050        2.95760       -2.20270
C          0.71350        2.38540       -2.23890
O          0.73640        1.04730       -2.68390
Br         4.88860        2.56100       -1.43320
H          3.33790        1.35930       -2.98080
H          2.17600        3.75080       -1.42500
H          0.08600        3.00640       -2.91050
H          0.22430        2.44240       -1.24000
H          1.68140        2.06720        0.44030
H          3.36210        1.56750        0.82590
H          2.01740        0.39340        1.00220
O          1.21340       -1.40050       -3.30420
O          1.79310       -2.10680       -1.33830
