21
TSA8_9_OMe_I_CF3
C          0.52480       -0.99610       -1.27740
C          1.33310       -1.11480       -0.00400
O          1.33960       -0.47800       -2.31620
H         -0.36090       -0.34050       -1.09820
I          0.73260       -0.08280        1.73600
C         -0.02310       -2.38690       -1.69880
C         -0.90480       -2.94740       -0.59940
C         -0.61190       -4.08730        0.03290
O          2.34150       -1.80270        0.02730
C         -0.83720       -2.32290       -3.00860
H          0.84170       -3.06670       -1.87660
H         -1.80230       -2.40550       -0.31380
H          0.27620       -4.65900       -0.21900
H         -1.26670       -4.45540        0.81620
C          1.54040        0.91170       -2.15240
H          1.99900        1.30880       -3.08120
H          2.24770        1.11190       -1.31930
H          0.58520        1.46610       -2.01490
F         -1.91900       -1.46890       -2.87100
F         -0.04630       -1.87900       -4.05330
F         -1.30290       -3.58560       -3.32980
