21
TSA8_9_OMe_I_CF3
C          1.51820        0.21270        0.05300
C          1.10100       -0.99460        0.43790
O          1.71910        0.46230       -1.26200
H          1.66490        0.99700        0.79110
I          0.73540       -1.34660        2.50260
C         -0.82440       -3.99400       -2.53810
C         -0.80560       -2.98600       -1.65440
C          0.05250       -3.01660       -0.42450
O          0.91840       -1.94820       -0.50850
C         -1.65350       -3.91180       -3.78540
H         -0.22390       -4.88290       -2.36380
H         -1.40880       -2.09980       -1.83490
H          0.63880       -3.95880       -0.36590
H         -0.60340       -2.94950        0.46860
C          1.99530        1.72030       -1.74370
H          2.10800        1.66830       -2.84620
H          2.93610        2.10570       -1.29850
H          1.15490        2.40780       -1.50610
F         -2.98650       -3.74230       -3.46070
F         -1.22940       -2.84170       -4.55470
F         -1.50950       -5.07560       -4.51800
