21
TSA8_9_OMe_I_CF3
C          0.46270       -1.03020       -1.43430
C          1.01030       -1.27220       -0.00310
O          1.48060       -0.54640       -2.29210
H         -0.38120       -0.30600       -1.34580
I         -0.19510       -0.45350        1.58400
C         -0.09960       -2.34620       -2.02790
C         -0.80950       -3.09910       -0.90690
C          0.26280       -3.50690        0.13020
O          1.37400       -2.61610        0.23840
C         -1.02050       -2.10410       -3.23570
H          0.74460       -2.98980       -2.36860
H         -1.57240       -2.42680       -0.45580
H          0.68040       -4.46880       -0.23350
H         -0.19910       -3.70290        1.12110
C          1.69660        0.83150       -2.07060
H          2.45140        1.18790       -2.80090
H          2.10910        1.01470       -1.05440
H          0.77390        1.42720       -2.24940
F         -2.11190       -1.33330       -2.87370
F         -0.32570       -1.45630       -4.24180
F         -1.47370       -3.31650       -3.72450
