17
TSA8_9_CH2F_F_I
C          1.59350        0.44440        1.66930
C          1.06040        1.09650        0.41470
C          1.34540       -1.07630        1.59490
H          2.69330        0.60930        1.68140
F          1.91510        1.73440       -0.42700
C          1.00910        1.13710        2.93290
C         -0.48040        0.93890        3.08680
C         -1.33600        1.96560        3.06700
O         -0.12870        1.05090        0.13910
I          1.96770        0.50640        4.74780
H          1.24490        2.22230        2.85490
H         -0.87190       -0.06420        3.22370
H         -0.98860        2.98560        2.93520
H         -2.39990        1.78660        3.18310
F          1.91990       -1.73830        2.66270
H          1.80370       -1.47850        0.66570
H          0.26020       -1.30710        1.56500
