17
TSA8_9_CH2F_F_I
C          1.81780        0.00870        0.02440
C          1.12590        0.97080        0.65090
C          2.05770       -1.35450        0.61050
H          2.22640        0.21610       -0.96030
F          0.95880        2.17150        0.03070
C         -0.25260        1.73830        5.02260
C         -0.58450        1.14840        3.86950
C         -0.15700        1.70320        2.54260
O          0.59620        0.75920        1.88020
I         -0.87840        0.91830        6.86350
H          0.34230        2.64670        5.03690
H         -1.18100        0.24130        3.88630
H          0.44060        2.63340        2.67260
H         -1.06520        1.94210        1.94790
F          3.41800       -1.57180        0.71970
H          1.62190       -2.11940       -0.06510
H          1.59640       -1.47240        1.61330
