24
TSA8_9_Me_CF3_OMe
C          2.84590        0.43510       -1.59530
C          1.56470       -0.09290       -2.21310
C          2.52610        1.16690       -0.28540
H          3.48740       -0.43080       -1.31420
C          1.34090       -1.57310       -2.35750
C          3.67680        1.27120       -2.61510
C          2.97490        2.50970       -3.14760
C          2.72610        3.59230       -2.40500
O          0.70110        0.68790       -2.58880
O          3.98460        0.41450       -3.70520
H          4.60920        1.58990       -2.08720
H          2.69380        2.53650       -4.19710
H          2.23750        4.45210       -2.85180
H          3.02060        3.65000       -1.36410
H          1.81900        2.00530       -0.44300
H          3.46010        1.54440        0.18270
H          2.04340        0.46240        0.42520
F          0.11050       -1.82480       -2.93960
F          2.33210       -2.11760       -3.15250
F          1.37700       -2.17000       -1.11090
C          5.20380        0.79080       -4.31120
H          5.38880        0.11600       -5.17190
H          6.05840        0.66670       -3.61030
H          5.15450        1.82650       -4.71350
