24
TSA8_9_Me_CF3_OMe
C          3.05750        0.41600       -1.35740
C          1.58140        0.17880       -1.76170
C          3.10090        1.18520       -0.02160
H          3.56110       -0.54590       -1.11360
C          1.33230       -0.99980       -2.71580
C          3.84220        1.12920       -2.49280
C          2.91940        2.01470       -3.36170
C          1.65340        2.43970       -2.62100
O          0.85810        1.34870       -2.15670
O          4.43710        0.14720       -3.32650
H          4.62720        1.74470       -1.99100
H          2.57640        1.45130       -4.25320
H          1.04160        3.02640       -3.33800
H          1.89230        3.13390       -1.79500
H          2.64150        2.18650       -0.06000
H          4.15350        1.30600        0.31170
H          2.56590        0.60160        0.75930
F         -0.03090       -1.17900       -2.86380
F          1.88810       -0.78940       -3.96030
F          1.86750       -2.15400       -2.17490
C          5.58720        0.66500       -3.96280
H          5.88450       -0.03490       -4.77040
H          6.43140        0.73750       -3.24390
H          5.39110        1.64550       -4.45190
