24
TSA8_9_OMe_Et_F
C          1.52700       -0.10360        0.00210
C          1.40600       -1.22310       -0.75060
O          1.53090        1.13720       -0.53900
H          1.60810       -0.20320        1.08210
C          1.38130       -2.56990       -0.06760
C          3.72710       -0.01250       -4.16120
C          2.98830        0.13960       -3.05730
C          1.52320       -0.21530       -3.02490
O          1.29380       -1.23070       -2.11410
F          5.04600        0.31250       -4.14620
H          3.29190       -0.39800       -5.07830
H          3.46310        0.52440       -2.16060
H          1.20160       -0.58090       -4.02360
H          0.89760        0.67170       -2.79880
C          1.60680        2.29590        0.20470
H          2.50870        2.86620       -0.09800
H          1.66110        2.09310        1.29700
H          0.70730        2.91500        0.00480
C          0.06810       -3.29580       -0.34330
H          1.50320       -2.47560        1.03390
H          2.22540       -3.17980       -0.45410
H         -0.78550       -2.70900        0.05670
H          0.08120       -4.28870        0.15340
H         -0.07280       -3.44860       -1.43470
