15
TSA8_9_F_CN_I
C          1.97980       -1.45610        0.24870
C          2.43070       -1.03850        1.62180
F          2.87660       -1.02250       -0.71360
H          1.01400       -0.93510        0.06350
C          1.55680       -0.20840        2.41530
C          1.76210       -2.98260        0.16410
C          0.54290       -3.29390       -0.66140
C         -0.66550       -3.30660       -0.08180
O          3.46330       -1.47180        2.10600
I          3.47520       -4.05830       -0.56100
H          1.56850       -3.39830        1.17810
H          0.62980       -3.48960       -1.72500
H         -0.77220       -3.10480        0.98290
H         -1.55710       -3.51660       -0.65960
N          0.84410        0.47350        3.02360
