15
TSA8_9_F_CN_I
C          2.25480       -1.64220        0.07510
C          1.17380       -1.09010        1.04040
F          1.98690       -1.13480       -1.18580
H          3.28590       -1.34170        0.36270
C          1.63380        0.00650        1.89910
C          2.16050       -3.18110        0.05130
C          0.69800       -3.58220       -0.14720
C         -0.18030       -2.91550        0.93840
O          0.58150       -2.10600        1.81740
I          3.40750       -4.10620       -1.42000
H          2.49650       -3.57350        1.03760
H          0.36550       -3.23930       -1.15180
H         -0.65090       -3.72410        1.53230
H         -1.01060       -2.32900        0.48150
N          1.97390        0.87390        2.58620
