19
TSA8_9_CHF2_F_NO2
C          1.52620       -0.75230        1.91890
C          1.06920        0.50060        1.20380
C          1.38280       -1.96220        0.96690
H          2.61580       -0.63160        2.11020
F          1.96050        1.49290        0.94790
C          0.83200       -0.86090        3.31890
C         -0.68250       -0.91700        3.24730
C         -1.44900        0.04260        3.77720
O         -0.08940        0.62960        0.83760
N          1.31950       -1.98810        4.09710
H          1.12430        0.07010        3.85920
H         -1.16650       -1.75700        2.76150
H         -1.01230        0.90180        4.27740
H         -2.52980       -0.02750        3.71180
F          2.00900       -3.08460        1.47280
F          0.05920       -2.25090        0.69180
H          1.89250       -1.72520        0.00770
O          1.03780       -3.10910        3.79750
O          1.98140       -1.76920        5.21360
