19
TSA8_9_NO2_CH2F_Br
C          2.63010        1.61930        0.32940
C          1.35530        1.56970       -0.56910
N          2.52730        0.61600        1.37610
H          3.54240        1.41170       -0.27750
C          1.65600        1.09180       -1.98700
C          2.79610        3.03910        0.90560
C          1.50080        3.55900        1.54280
C          0.27490        3.12460        0.71850
O          0.65820        2.80850       -0.60520
Br         4.30680        3.20120        2.11380
H          3.00100        3.70550        0.03830
H          1.35560        3.25010        2.59990
H         -0.47800        3.93910        0.72050
H         -0.23130        2.24990        1.19180
O          3.34410       -0.25200        1.45090
O          1.53110        0.63600        2.23560
F          0.47820        0.98220       -2.70260
H          2.14910        0.09760       -1.95490
H          2.32640        1.81590       -2.49760
