16
TSA8_9_H_NO2_Br
C          3.03430        1.18160       -1.11890
C          1.62190        1.32110       -1.65070
H          3.06680        0.41500       -0.31410
H          3.62910        0.80220       -1.97810
N          0.94930        0.22230       -2.09000
C          3.71120        2.46920       -0.59270
C          3.24200        2.89950        0.78660
C          2.01890        3.35420        1.07700
O          1.09490        2.42100       -1.72760
Br         5.61850        2.10010       -0.45740
H          3.60480        3.29770       -1.32540
H          3.95280        2.85760        1.60730
H          1.24130        3.46430        0.34070
H          1.78680        3.64600        2.09640
O         -0.15710        0.32670       -2.52820
O          1.50960       -0.96810       -2.03860
