16
TSA8_9_H_NO2_Br
C          1.96840        0.13030       -0.22180
C          1.44390        0.97950       -1.13010
H          2.42330        0.47850        0.69780
H          1.94690       -0.94320       -0.37720
N          0.84030        0.46980       -2.31870
C          4.34910        4.06330       -0.40640
C          3.61050        2.97480       -0.16710
C          2.11750        3.05440        0.03280
O          1.45620        2.33340       -0.94640
Br         6.23800        3.91250       -0.66030
H          3.89500        5.04770       -0.46430
H          4.10070        2.00800       -0.11820
H          1.78100        4.11100       -0.03650
H          1.83740        2.68730        1.04270
O          0.37590        1.22500       -3.11750
O          0.79300       -0.82460       -2.55570
