19
TSA8_9_F_CF3_NH2
C          2.00610        2.11550       -0.65890
C          0.90840        1.92340       -1.67690
F          1.57980        1.56250        0.53550
H          2.92050        1.57190       -0.98500
C          1.14620        1.11270       -2.92070
C          2.34960        3.61450       -0.48310
C          3.43270        3.83620        0.55690
C          3.26270        3.54240        1.85060
O         -0.18920        2.42440       -1.47940
N          2.77830        4.17000       -1.77050
H          1.43870        4.16340       -0.15470
H          4.38050        4.27180        0.25210
H          2.33190        3.12850        2.22220
H          4.06400        3.73040        2.55770
F         -0.00010        1.06490       -3.69550
F          2.16380        1.68410       -3.66130
F          1.50450       -0.17640       -2.57180
H          3.66280        3.70820       -2.08750
H          2.95280        5.19630       -1.66940
