19
TSA8_9_F_CF3_NH2
C          1.79900        0.12440       -0.11760
C          1.52300        1.16920       -0.93330
F          2.16490        0.27350        1.18070
H          1.70410       -0.89510       -0.47570
C          1.06220        0.93630       -2.35240
C          2.61840        5.19960       -0.72310
C          3.18720        4.15660       -0.10300
C          2.35830        3.04490        0.46970
O          1.61310        2.47490       -0.54780
N          3.40780        6.24020       -1.27200
H          1.53720        5.25380       -0.81530
H          4.26890        4.10380       -0.01240
H          1.67390        3.45650        1.24170
H          3.05390        2.32760        0.94280
F         -0.18450        1.50840       -2.52330
F          1.95320        1.54230       -3.21850
F          0.97970       -0.40850       -2.67320
H          4.43650        6.21880       -1.20970
H          2.95070        7.02910       -1.75040
