19
TSA8_9_F_CF3_NH2
C          2.99550        2.27740       -1.28390
C          1.62920        1.65820       -0.83870
F          3.97950        1.90330       -0.38260
H          3.30190        1.89440       -2.28110
C          0.77780        1.21270       -2.03390
C          2.86550        3.80630       -1.28970
C          2.47820        4.30700        0.11890
C          1.65790        3.24790        0.87550
O          0.84120        2.52950       -0.02190
N          4.08740        4.45130       -1.76930
H          2.03790        4.06310       -1.98540
H          3.35630        4.55210        0.75590
H          1.03830        3.74370        1.65070
H          2.32460        2.54130        1.42260
F         -0.39910        0.65100       -1.57410
F          0.47300        2.28810       -2.84870
F          1.45930        0.26040       -2.77040
H          4.88160        4.24800       -1.11980
H          3.94070        5.48660       -1.80010
