22
TSA8_9_NO2_OMe_NH2
C          2.63020        1.37700        0.41530
C          2.05660        2.00770       -0.83130
N          1.65730        0.46800        0.99880
H          3.54390        0.80230        0.13450
O          2.68840        1.83400       -2.02110
C          3.03760        2.47510        1.42740
C          3.56290        1.86470        2.70900
C          2.97800        2.09900        3.88840
O          1.04330        2.68920       -0.75960
N          4.06040        3.34250        0.83820
H          2.14100        3.09720        1.65230
H          4.43830        1.22320        2.67140
H          2.10260        2.73740        3.96480
H          3.37660        1.65090        4.79200
O          1.91400       -0.69410        1.10690
O          0.49490        0.91510        1.42570
C          2.27860        2.43530       -3.19250
H          2.95820        2.13490       -4.01590
H          2.31560        3.54120       -3.08490
H          1.24370        2.12000       -3.44570
H          4.92930        2.79280        0.64050
H          4.29800        4.10910        1.50880
