18
TSA8_9_CN_NH2_CN
C          2.83280        0.91740        1.19240
C          1.54850        1.56780        0.59560
C          2.44400       -0.49500        1.36090
H          3.69800        0.96440        0.49390
N          1.67410        2.07410       -0.77130
C          3.14690        1.67490        2.52830
C          1.94360        1.56750        3.45380
C          0.65780        1.91050        2.68770
O          0.94490        2.53220        1.44590
C          4.36310        1.38800        3.30630
H          3.27040        2.74500        2.25480
H          1.86170        0.53750        3.88010
H          0.08300        2.60770        3.32610
H          0.02860        1.00350        2.53420
N          2.10390       -1.59440        1.51820
H          2.27200        2.93020       -0.81110
H          2.03670        1.33010       -1.41080
N          5.28900        1.24520        3.98810
