26
TSA8_9_CCl3_Et_CH2F
C          2.80740        1.24560       -0.75340
C          1.52960        0.76100       -1.48700
C          2.42340        1.69780        0.69810
H          3.47150        0.36680       -0.59450
C          1.52290       -0.60350       -2.20620
C          3.55780        2.23550       -1.70840
C          2.60870        3.28960       -2.28550
C          1.41360        2.59600       -2.94090
O          0.70130        1.78010       -2.02890
C          4.82580        2.90010       -1.15640
H          3.89750        1.62660       -2.57250
H          2.26650        4.00590       -1.51590
H          1.73510        2.02440       -3.82960
H          0.72720        3.38180       -3.31860
Cl         1.37530        3.13950        0.77820
Cl         1.53460        0.37590        1.51450
Cl         3.85640        1.96830        1.72760
C          2.40110       -0.71620       -3.44920
H          0.47570       -0.85790       -2.47500
H          1.87420       -1.36380       -1.47610
H          2.05480       -0.04820       -4.25810
H          2.33990       -1.75470       -3.83770
H          3.46130       -0.50890       -3.20250
F          4.52860        3.85710       -0.20250
H          5.35200        3.42030       -1.98550
H          5.51570        2.13660       -0.73930
