20
TSA8_9_CH2F_F_CF3
C          1.44330        0.76170        2.16880
C          1.00500        1.15990        0.77620
C          1.39340       -0.77570        2.28490
H          2.50930        1.06510        2.26140
F          1.88300        1.78450       -0.05140
C          0.62490        1.55840        3.24160
C         -0.85860        1.24900        3.18280
C         -1.76470        2.18170        2.87190
O         -0.12310        0.91510        0.37590
C          1.12220        1.37760        4.69180
H          0.78840        2.63480        3.00180
H         -1.20180        0.24270        3.40330
H         -1.46840        3.20140        2.64630
H         -2.81830        1.92470        2.84150
F          2.00480       -1.21960        3.44050
H          1.95640       -1.22340        1.43750
H          0.35080       -1.15330        2.23900
F          0.86260        0.10720        5.17110
F          2.48090        1.62760        4.76660
F          0.46900        2.28070        5.51310
