20
TSA8_9_CH2F_F_CF3
C          1.82460        0.00530        0.09400
C          1.09320        0.98360        0.64620
C          2.19370       -1.26120        0.81370
H          2.16490        0.12290       -0.93070
F          0.80100        2.08540       -0.09960
C         -0.21260        2.27060        4.92570
C         -0.48510        1.43420        3.90950
C         -0.20800        1.81220        2.48300
O          0.64290        0.88600        1.92120
C         -0.47890        1.93080        6.36760
H          0.21740        3.24640        4.71670
H         -0.92240        0.45800        4.09990
H          0.24540        2.82680        2.42130
H         -1.16870        1.81720        1.92420
F          3.56990       -1.37460        0.86470
H          1.78020       -2.12570        0.25360
H          1.79350       -1.29340        1.84830
F         -1.01380        0.66220        6.51230
F          0.70750        1.99840        7.07310
F         -1.36650        2.85200        6.89120
