20
TSA8_9_CH2F_F_CF3
C          1.46550        0.97090        2.52520
C          1.06800        1.52980        1.14530
C          1.48180       -0.56850        2.46110
H          2.50360        1.29590        2.75630
F          1.31290        2.89170        1.03930
C          0.49490        1.57440        3.58140
C         -0.95970        1.32470        3.15760
C         -1.16450        1.84630        1.72960
O         -0.27800        1.21880        0.81680
C          0.74190        1.11600        5.03140
H          0.65560        2.67660        3.57160
H         -1.20380        0.24180        3.19740
H         -1.05780        2.95360        1.69180
H         -2.20700        1.62170        1.42270
F          2.36630       -0.98640        1.48190
H          0.47940       -0.98010        2.22440
H          1.82910       -0.99610        3.42180
F          0.46650       -0.22930        5.19620
F          2.05720        1.35860        5.38540
F         -0.08060        1.83160        5.88390
