17
TSA8_9_CCl3_Cl_Cl
C          1.61550       -0.75310        1.36920
C          0.73560        0.39720        0.91440
C          1.66030       -1.87600        0.27370
H          2.65090       -0.35220        1.44230
Cl         1.44160        1.97790        0.61330
C          1.22130       -1.14880        2.83150
C         -0.14710       -1.76970        2.97470
C         -1.12690       -1.17220        3.66060
O         -0.46640        0.24860        0.75990
Cl         2.41430       -2.22210        3.61390
H          1.26070       -0.20920        3.42810
H         -0.34630       -2.73580        2.52720
H         -0.97610       -0.20730        4.13490
H         -2.09610       -1.65180        3.74990
Cl         0.07020       -2.60290       -0.09920
Cl         2.27100       -1.18020       -1.25590
Cl         2.78420       -3.19920        0.67980
