17
TSA8_9_CCl3_Cl_Cl
C          1.79480       -0.03600        0.00730
C          1.07630        0.14990        1.13160
C          2.20210       -1.35280       -0.62910
H          2.12530        0.85480       -0.52080
Cl         0.74270        1.81390        1.62990
C         -0.14200       -2.46640        4.78440
C         -0.47390       -2.13400        3.53200
C         -0.19170       -0.77010        2.97360
O          0.61660       -0.89500        1.86460
Cl        -0.48960       -4.07420        5.39870
H          0.34430       -1.75230        5.44210
H         -0.96230       -2.86610        2.89460
H          0.30820       -0.12820        3.73310
H         -1.15490       -0.29870        2.68170
Cl         1.67360       -2.84340        0.20550
Cl         1.53950       -1.39950       -2.28000
Cl         3.97760       -1.39690       -0.73780
