19
TSA8_9_Cl_CF3_NO2
C          2.11590        1.65460       -1.20650
C          0.90820        1.39990       -2.07900
Cl         1.73160        1.10590        0.45370
H          2.97930        1.05280       -1.56760
C          0.98930        0.47340       -3.26000
C          2.49920        3.15310       -1.21940
C          3.65770        3.42510       -0.28540
C          3.54340        4.25650        0.75600
O         -0.15180        1.95030       -1.81530
N          2.85940        3.57380       -2.56190
H          1.61270        3.73880       -0.88220
H          4.60960        2.93230       -0.46250
H          2.60910        4.76790        0.96790
H          4.39230        4.43090        1.40860
F         -0.23950        0.38630       -3.89200
F          1.92250        0.94870       -4.16190
F          1.36490       -0.78750       -2.83590
O          3.78940        3.07990       -3.12620
O          2.16230        4.51230       -3.16550
