19
TSA8_9_Cl_CF3_NO2
C          1.82030        0.07720       -0.13850
C          1.45480        1.08450       -0.96050
Cl         2.01770        0.28000        1.59960
H          1.97130       -0.92650       -0.52070
C          1.22330        0.84380       -2.43480
C          2.54200        4.46380       -2.09370
C          3.08420        3.70200       -1.12760
C          2.24320        3.17220       -0.00020
O          1.24490        2.33970       -0.47890
N          3.31060        4.98880       -3.17020
H          1.47960        4.69370       -2.05300
H          4.14420        3.46630       -1.14010
H          1.77590        4.03350        0.52200
H          2.88870        2.64230        0.72770
F         -0.07950        1.17980       -2.75140
F          2.08090        1.63730       -3.17170
F          1.43690       -0.47770       -2.79090
O          4.47860        4.76320       -3.26270
O          2.72380        5.74120       -4.07630
