22
TSA8_9_CCl3_NO2_CCl3
C          1.78300       -0.00250        0.13260
C          1.42890       -0.25680        1.41880
C          1.93920       -0.98780       -1.01570
H          1.98360        1.02850       -0.14370
N          1.28400        0.81890        2.35020
C          2.71910       -2.54860        4.77620
C          2.76330       -1.82090        3.64770
C          2.20470       -2.34190        2.34890
O          1.20390       -1.52490        1.84790
C          3.28860       -2.04270        6.07620
H          2.26560       -3.53620        4.75540
H          3.22450       -0.83730        3.65790
H          1.78070       -3.35920        2.48950
H          3.03320       -2.41960        1.61280
Cl         1.43930       -2.67690       -0.71570
Cl         0.95550       -0.40700       -2.38090
Cl         3.64310       -0.99250       -1.52630
O          0.92190        0.59590        3.46500
O          1.49670        2.06630        1.98520
Cl         3.07700       -3.27250        7.34870
Cl         5.03190       -1.70770        5.90510
Cl         2.44970       -0.55450        6.58570
