22
TSA8_9_CCl3_NO2_CCl3
C          2.24840       -0.39740        1.96260
C          0.89370       -0.91900        1.40550
C          3.26050       -0.23790        0.77120
H          2.08360        0.64540        2.31070
N         -0.26820       -0.51440        2.18550
C          2.59390       -1.27240        3.22440
C          2.53460       -2.76670        2.87660
C          1.18580       -3.10130        2.24140
O          0.91330       -2.30970        1.09270
C          3.86120       -0.94470        4.06420
H          1.74660       -1.08460        3.92400
H          3.36410       -3.06840        2.21220
H          0.38220       -3.01450        2.99960
H          1.20320       -4.16890        1.93890
Cl         3.77700       -1.76410        0.00450
Cl         2.49840        0.73900       -0.52130
Cl         4.70690        0.70390        1.21230
O         -1.14200       -1.28950        2.43290
O         -0.46090        0.76240        2.43590
Cl         3.77500       -1.83090        5.61430
Cl         5.39650       -1.45270        3.30190
Cl         3.93200        0.79050        4.47710
