15
TSA8_9_F_CN_F
C          1.84590       -1.19700       -0.97100
C          1.99640       -1.96780        0.31510
F          3.09700       -0.70170       -1.29650
H          1.16410       -0.32420       -0.85480
C          1.30020       -1.57840        1.51560
C          1.33650       -2.08630       -2.12830
C         -0.16950       -2.21910       -2.15900
C         -0.90200       -2.75970       -1.18340
O          2.80640       -2.88050        0.37670
F          1.71080       -1.50140       -3.32550
H          1.82240       -3.08660       -2.08740
H         -0.69020       -1.84730       -3.03820
H         -0.45290       -3.15180       -0.28070
H         -1.98230       -2.80550       -1.29700
N          0.74280       -1.28000        2.48040
