15
TSA8_9_F_CN_F
C          1.81140       -1.28770       -1.11880
C          1.72820       -2.18810        0.14090
F          3.03680       -0.64820       -1.16220
H          1.00210       -0.52200       -1.13400
C          1.33210       -1.46580        1.35540
C          1.61780       -2.19610       -2.32540
C          0.19910       -2.77220       -2.25100
C         -0.17340       -3.16270       -0.80570
O          0.98040       -3.39370       -0.01950
F          1.79800       -1.52140       -3.51810
H          2.35610       -3.02890       -2.27330
H         -0.54930       -2.01230       -2.57870
H         -0.79870       -4.07830       -0.83570
H         -0.79150       -2.37470       -0.31880
N          1.01930       -0.89600        2.31620
