29
TSA8_9_Et_Et_CHF2
C          2.58820       -0.51250       -1.39340
C          1.36550       -1.26990       -0.89130
C          2.57530        0.87630       -0.68820
H          3.47820       -1.06410       -1.02350
C          1.51350       -2.50770       -0.04180
C          2.59480       -0.57320       -2.96300
C          1.57440        0.36490       -3.57490
C          0.52250       -0.07890       -4.26800
O          0.24340       -0.85970       -1.15240
C          3.96440       -0.38430       -3.64760
H          2.33740       -1.62700       -3.22080
H          1.70240        1.43610       -3.44720
H          0.35520       -1.13960       -4.42170
H         -0.18360        0.62970       -4.69080
C          3.83440        1.72360       -0.81450
H          2.46780        0.67830        0.40270
H          1.69220        1.47480       -1.00150
H          4.72950        1.13790       -0.51330
H          3.74500        2.60010       -0.13800
H          3.94800        2.13780       -1.82500
C          2.23270       -3.63210       -0.78330
H          0.50750       -2.87640        0.25890
H          2.07820       -2.24980        0.87950
H          1.66800       -3.91220       -1.69830
H          2.30460       -4.52250       -0.12250
H          3.26200       -3.33410       -1.06950
F          4.44790        0.90160       -3.58720
F          4.89830       -1.25350       -3.10990
H          3.85490       -0.62980       -4.72700
