29
TSA8_9_Et_Et_CHF2
C          2.56520       -0.54090       -1.58190
C          1.21220       -1.27030       -1.24470
C          2.46250        0.91990       -1.06700
H          3.37450       -1.02120       -0.98930
C          1.37220       -2.48290       -0.31350
C          2.83650       -0.74720       -3.10580
C          1.64080       -0.26380       -3.95180
C          0.31240       -0.50980       -3.22520
O          0.43230       -1.63080       -2.38190
C          4.16170       -0.24270       -3.69510
H          2.87460       -1.85390       -3.22080
H          1.68310        0.81210       -4.22840
H         -0.49310       -0.66900       -3.97130
H          0.00220        0.38370       -2.63450
C          3.80780        1.60620       -0.80930
H          1.98040        0.89000       -0.06420
H          1.81970        1.53740       -1.72740
H          4.40220        1.01400       -0.08140
H          3.62440        2.60990       -0.37080
H          4.41400        1.75160       -1.71150
C          2.13660       -3.63820       -0.96300
H          0.35990       -2.84250       -0.03050
H          1.89520       -2.16800        0.61490
H          1.61410       -3.98250       -1.88030
H          2.19640       -4.48730       -0.25050
H          3.17110       -3.33560       -1.22660
F          4.17490        1.13070       -3.84430
F          5.22890       -0.65240       -2.91660
H          4.28310       -0.67290       -4.71240
