15
TSA8_9_Br_OH_Br
C          1.57930        0.04690       -0.02570
C          2.16850        1.24820       -0.10580
Br         0.73890       -0.55060        1.58960
H          1.58940       -0.62810       -0.87740
O          2.78820        1.62900       -1.24760
C          1.68350        4.78280       -0.27270
C          2.83700        4.18790        0.03960
C          2.94900        3.18420        1.15630
O          2.14060        2.07640        0.97200
Br         1.62300        6.04860       -1.70450
H          0.77420        4.55680        0.27350
H          3.73310        4.43180       -0.52420
H          2.66740        3.67140        2.11420
H          4.00490        2.84890        1.23700
H          2.81100        1.07300       -2.04090
