21
TSA8_9_CF3_CN_CF3
C          1.72220       -0.08020        0.03490
C          1.54440       -1.16760       -0.74050
C          1.85030        1.34760       -0.45700
H          1.79260       -0.21180        1.11420
C          1.43950       -2.47340       -0.11330
C          0.24920       -0.99600       -5.29640
C          0.72640       -0.42810       -4.18130
C          0.35770       -0.89800       -2.80810
O          1.51480       -1.07350       -2.08970
C          0.61260       -0.49720       -6.67020
H         -0.44120       -1.83120       -5.22190
H          1.39060        0.42840       -4.24490
H         -0.25880       -1.82460       -2.80950
H         -0.23640       -0.08310       -2.35230
F          3.13890        1.78600       -0.23500
F          1.56640        1.49180       -1.80140
F          0.97710        2.14820        0.25530
N          1.35500       -3.50320        0.38050
F          1.53470        0.53610       -6.62240
F          1.15140       -1.53820       -7.40070
F         -0.52910       -0.04310       -7.30210
