20
TSA8_9_Me_CF3_F
C          2.79720       -1.19870       -0.48950
C          1.36030       -1.62850       -0.10780
C          2.74060        0.07440       -1.35490
H          3.37030       -0.87770        0.40840
C          1.24060       -2.50630        1.14820
C          3.55310       -2.35500       -1.18440
C          2.61500       -3.31960       -1.92800
C          1.28860       -2.65590       -2.30000
O          0.56450       -2.13210       -1.18580
F          4.24830       -3.09390       -0.24080
H          4.31160       -1.93210       -1.87740
H          2.35690       -4.17970       -1.27710
H          0.65960       -3.43460       -2.77990
H          1.44070       -1.87740       -3.07000
H          2.20240       -0.05190       -2.30890
H          3.77110        0.41760       -1.58840
H          2.23480        0.88580       -0.78870
F         -0.09710       -2.68130        1.45050
F          1.82000       -3.74610        0.97390
F          1.85040       -1.87450        2.21630
