23
TSA8_9_CBr3_CH2F_CH2F
C          0.99060       -1.65800        1.26090
C          1.62340       -0.23740        1.42470
C          1.67610       -2.54220        0.16530
H         -0.02490       -1.44660        0.85740
C          3.08240       -0.19300        1.89270
C          0.84900       -2.28950        2.68650
C          0.35050       -1.22430        3.68830
C         -0.14760        0.06120        3.02290
O          0.83840        0.67220        2.20000
C         -0.02660       -3.54880        2.75150
H          1.85010       -2.58600        3.06430
H         -0.34700       -1.62520        4.45660
H         -0.40490        0.77490        3.83300
H         -1.07360       -0.12490        2.43820
Br         2.05710       -1.48640       -1.42480
Br         3.32820       -3.39440        0.74200
Br         0.49680       -3.94920       -0.47810
F          3.51340        1.12040        1.92560
H          3.73300       -0.73490        1.18190
H          3.18820       -0.62880        2.90480
F         -1.30570       -3.28610        2.29590
H         -0.08280       -3.91520        3.79880
H          0.42370       -4.37330        2.16840
