19
TSA8_9_CHF2_CN_OH
C          1.75720        0.00620        0.08440
C          1.48990       -0.50420        1.29990
C          1.84200       -0.81600       -1.18260
H          1.88910        1.08010       -0.02110
C          1.33900        0.37660        2.43920
C         -0.16160       -4.65060        2.79050
C          0.22550       -3.88600        1.76310
C          0.13000       -2.39300        1.81410
O          1.33570       -1.83970        1.45620
O         -0.11120       -5.99810        2.71310
H         -0.54340       -4.19220        3.69730
H          0.58920       -4.34920        0.84850
H         -0.19830       -2.02100        2.80920
H         -0.62050       -2.10640        1.05140
F          3.13580       -0.78470       -1.66020
F          1.45740       -2.13480       -1.00970
H          1.15990       -0.37400       -1.93820
N          1.22420        1.08190        3.34810
H          0.19080       -6.45890        1.91670
