19
TSA8_9_CHF2_CN_OH
C          1.15830       -1.97360        0.64710
C          1.25500       -1.13350        1.96730
C          2.30750       -1.70990       -0.33830
H          0.24060       -1.73110        0.06540
C          1.39690        0.31720        1.83820
C          1.02450       -3.41530        1.17570
C         -0.36290       -3.52080        1.84630
C         -0.79230       -2.16940        2.46880
O          0.32490       -1.48280        3.00050
O          1.15030       -4.39140        0.17780
H          1.83270       -3.57010        1.93610
H         -1.14470       -3.77010        1.09070
H         -1.56290       -2.34530        3.24640
H         -1.28520       -1.51510        1.71060
F          3.54610       -1.86940        0.25030
F          2.20040       -2.55050       -1.43440
H          2.21300       -0.66660       -0.71520
N          1.51840        1.46540        1.77710
H          1.34240       -5.24490        0.65400
