21
TSA8_9_OH_CH2F_CF3
C          3.01280        1.34620       -0.02740
C          1.57160        1.34970       -0.49110
O          3.29920        0.12850        0.61200
H          3.67000        1.45860       -0.92190
C          1.25370        1.49990       -1.95090
C          3.32190        2.54040        0.91560
C          2.52200        2.45220        2.20010
C          1.64250        3.39430        2.55410
O          0.66480        1.21690        0.31790
C          4.82390        2.62430        1.25550
H          3.06110        3.47550        0.36870
H          2.66680        1.59860        2.85640
H          1.46680        4.26390        1.92870
H          1.08900        3.29660        3.48240
H          3.40080       -0.55420       -0.10200
F         -0.11370        1.47190       -2.16280
H          1.72350        0.67030       -2.51950
H          1.65570        2.46680       -2.31940
F          5.24420        1.49470        1.93700
F          5.56840        2.75090        0.09580
F          5.06180        3.73440        2.04760
