21
TSA8_9_OH_CH2F_CF3
C          1.75380        0.09640       -0.10980
C          1.43490        1.32000       -0.59370
O          2.00240       -0.12780        1.19520
H          1.80210       -0.75180       -0.78770
C          1.14680        1.47880       -2.06010
C          4.05490        3.75430        1.75150
C          3.32890        2.67020        1.44080
C          1.82190        2.69350        1.44170
O          1.34540        2.45400        0.16560
C          5.55400        3.72130        1.72100
H          3.55900        4.68300        2.02360
H          3.83770        1.75080        1.16540
H          1.45810        3.69620        1.75400
H          1.40530        1.96830        2.16870
H          2.21280       -1.01710        1.51190
F         -0.13640        1.96360       -2.22870
H          1.24270        0.52230       -2.61740
H          1.86780        2.20450       -2.49230
F          6.02410        2.77570        2.61360
F          5.98960        3.40480        0.44660
F          6.05480        4.96170        2.07160
