23
TSA8_9_Et_I_CF3
C          2.40110        0.93900        1.32400
C          1.28080        1.55150        0.50590
C          2.43880       -0.57830        0.97580
H          3.33850        1.40000        0.94430
I          1.71390        2.99290       -0.97580
C          2.21780        1.38620        2.81990
C          1.01070        0.73770        3.46530
C         -0.04860        1.44740        3.86660
O          0.11870        1.21680        0.67890
C          3.44520        1.24170        3.74590
H          2.06700        2.49060        2.76570
H          1.00500       -0.33840        3.61150
H         -0.08430        2.52510        3.74110
H         -0.89360        0.94570        4.32660
C          3.68580       -1.35230        1.39440
H          2.43150       -0.64930       -0.13600
H          1.52780       -1.09670        1.34400
H          4.60200       -0.84170        1.02940
H          3.64560       -2.36580        0.94150
H          3.73830       -1.51660        2.47600
F          3.68950       -0.06060        4.11540
F          4.57030        1.76790        3.13630
F          3.21200        1.95540        4.90920
