23
TSA8_9_Et_I_CF3
C          2.35800        0.98020        1.45220
C          1.06570        1.57670        0.79140
C          2.30190       -0.56920        1.35550
H          3.21760        1.29330        0.82090
I          1.56540        3.13090       -0.59780
C          2.48070        1.60320        2.87650
C          1.20470        1.33180        3.70310
C         -0.04010        1.27480        2.80910
O          0.12180        2.13050        1.70500
C          3.74100        1.29960        3.70450
H          2.50950        2.69980        2.68210
H          1.23540        0.38870        4.29040
H         -0.92960        1.57330        3.40080
H         -0.24850        0.23900        2.45720
C          3.67120       -1.25760        1.39070
H          1.89770       -0.82970        0.35190
H          1.62000       -1.00420        2.11340
H          4.31060       -0.87170        0.56830
H          3.53330       -2.34890        1.23740
H          4.21370       -1.12610        2.33560
F          3.72460        0.01060        4.20070
F          4.87570        1.49590        2.93840
F          3.78850        2.16070        4.78720
