26
TSA8_9_Me_CCl3_Et
C          1.70860       -0.00150       -0.11250
C          1.45610        0.28320       -1.42080
C          1.82270        0.99270        1.01150
H          1.80910       -1.02970        0.20880
C          1.26450       -0.81260       -2.46190
C          4.17640        2.88130       -3.19220
C          2.85270        2.97060       -2.99160
C          2.23680        2.59330       -1.67670
O          1.35510        1.55340       -1.90430
C          4.80900        3.20270       -4.51640
H          4.82740        2.55000       -2.38660
H          2.19760        3.29520       -3.79590
H          1.68940        3.46220       -1.25620
H          3.04160        2.29420       -0.97030
H          1.60140        2.03470        0.72120
H          2.83970        0.93660        1.45160
H          1.08220        0.72470        1.79340
Cl         2.47350       -0.59650       -3.75200
Cl         1.41220       -2.49390       -1.86470
Cl        -0.35670       -0.64000       -3.17910
C          5.53640        1.97340       -5.05180
H          5.53630        4.03050       -4.37760
H          4.04640        3.52330       -5.25930
H          6.32460        1.65020       -4.33700
H          6.01470        2.21370       -6.02330
H          4.81970        1.13760       -5.20160
