26
TSA8_9_Me_CCl3_Et
C          3.16100        0.92350       -1.61330
C          1.67320        0.78620       -2.06750
C          3.19950        0.83820       -0.07980
H          3.77980        0.08070       -1.98040
C          1.29830       -0.54170       -2.74820
C          3.76500        2.27440       -2.09650
C          2.78950        3.41120       -1.72360
C          1.31920        3.04910       -2.01330
O          1.22450        1.89750       -2.82480
C          4.06800        2.31150       -3.62140
H          4.73680        2.46430       -1.59000
H          3.09630        4.38560       -2.16230
H          0.81990        3.90060       -2.52100
H          0.77130        2.90050       -1.05440
H          2.60050        1.65010        0.38470
H          4.24680        0.91910        0.28080
H          2.79230       -0.13500        0.26570
Cl         2.11550       -0.71060       -4.32340
Cl         1.72150       -1.93890       -1.72390
Cl        -0.46120       -0.58740       -3.02250
C          5.16560        1.33070       -4.04400
H          4.43600        3.32940       -3.87790
H          3.16320        2.12290       -4.23270
H          6.09980        1.53130       -3.47890
H          5.37430        1.45880       -5.12710
H          4.86260        0.27780       -3.88510
