18
TSA8_9_Br_CF3_CN
C          1.59560       -0.04260        0.00630
C          1.43950       -1.36370        0.60400
Br         1.71610        0.47130       -1.81140
H          1.53180        0.80240        0.65860
C          1.71780       -1.47330        2.09250
C          2.14840       -4.66050       -1.82190
C          2.00700       -3.33090       -1.85820
C          0.75930       -2.71080       -1.29440
O          0.90990       -2.55070        0.07160
C          3.45550       -5.22200       -2.00670
H          1.32140       -5.31420       -1.54850
H          2.85850       -2.70050       -2.10690
H         -0.07120       -3.41990       -1.37650
H          0.39850       -1.81180       -1.83550
F          1.78480       -2.80900        2.46210
F          2.91450       -0.87250        2.48970
F          0.67300       -0.86700        2.73280
N          4.52220       -5.63890       -2.16250
