18
TSA8_9_Br_CF3_CN
C          2.63240       -1.92100       -0.39950
C          1.31900       -1.59980        0.38030
Br         2.82610       -0.62160       -1.84750
H          3.52490       -1.77180        0.24350
C          1.54090       -1.67150        1.90240
C          2.52890       -3.37290       -0.88460
C          1.37340       -3.47670       -1.87770
C          0.15060       -2.69750       -1.35300
O          0.22930       -2.47080        0.04430
C          3.76740       -3.96390       -1.40300
H          2.27180       -3.99870       -0.00520
H          1.63850       -3.06880       -2.88330
H         -0.74650       -3.30950       -1.58270
H          0.01670       -1.72670       -1.87960
F          1.81600       -2.96940        2.29780
F          2.59370       -0.85410        2.27710
F          0.40290       -1.23730        2.55460
N          4.72340       -4.46810       -1.81660
