20
TSA8_9_H_NO2_OMe
C          1.53760        0.37630       -0.04610
C          2.25760        1.12210       -0.90780
H          1.99940       -0.09080        0.81780
H          0.48030        0.20090       -0.18360
N          3.65550        1.30830       -0.69600
C         -0.69150        4.13670       -1.79300
C         -0.18970        2.97840       -1.32090
C          0.34330        1.91880       -2.25290
O          1.68940        1.70720       -2.00550
O         -1.16010        5.13700       -0.99710
H         -0.72600        4.30120       -2.86540
H         -0.14680        2.78800       -0.25350
H          0.23870        2.24910       -3.30640
H         -0.23300        0.97390       -2.15370
O          4.28420        1.98450       -1.45250
O          4.26230        0.77380        0.34320
C         -1.14270        5.15270        0.38220
H         -1.58290        6.10720        0.73750
H         -0.09650        5.08810        0.75090
H         -1.74420        4.31130        0.78570
