14
TSA8_9_I_I_H
C          1.80800        0.32250        0.05970
C          1.89020        0.29620        1.40640
I          1.98390       -1.38850       -1.18100
H          1.64810        1.25240       -0.47190
I          2.21760       -1.51290        2.46220
C         -0.96810        2.52250        1.98180
C          0.09040        2.80580        1.21770
C          1.49320        2.70430        1.75200
O          1.78090        1.41780        2.17560
H         -1.97030        2.60650        1.57390
H         -0.84360        2.20720        3.01330
H         -0.06420        3.12140        0.19060
H          1.58830        3.39310        2.61800
H          2.22920        3.02410        0.98340
