18
TSA8_9_I_OH_CF3
C          1.70460       -1.72280        1.31880
C          2.84990       -0.76220        1.55960
I          0.91500       -1.39620       -0.65220
H          0.87560       -1.47100        2.01470
O          2.78020        0.15970        2.54350
C          2.05810       -3.22120        1.53440
C          3.14490       -3.69860        0.59070
C          2.92280       -4.64660       -0.32510
O          3.84360       -0.79680        0.85140
C          2.46320       -3.52320        2.99170
H          1.12410       -3.79480        1.33740
H          4.13990       -3.27100        0.65730
H          1.94700       -5.11000       -0.43170
H          3.72720       -4.96480       -0.98020
H          2.01200        0.22930        3.12740
F          3.62650       -2.85700        3.33620
F          1.45270       -3.13790        3.85530
F          2.67130       -4.88310        3.14480
