18
TSA8_9_I_OH_CF3
C          1.64160        0.02510        0.07200
C          1.87980       -1.12820        0.71150
I          1.17820        0.07890       -1.99470
H          1.72530        0.97190        0.59700
O          2.22390       -1.12610        2.02110
C          2.29650       -4.31710        2.27810
C          3.14100       -3.76400        1.40030
C          2.71520       -3.30890        0.02940
O          1.76760       -2.30050        0.03710
C          2.78910       -4.76370        3.62510
H          1.24980       -4.45070        2.02050
H          4.18700       -3.64000        1.66630
H          2.31030       -4.17320       -0.53970
H          3.61180       -2.93660       -0.50770
H          2.28590       -0.31220        2.54320
F          3.30950       -3.68490        4.31730
F          1.74580       -5.30580        4.35140
F          3.77430       -5.72300        3.46830
