23
TSA8_9_OMe_NO2_CH2F
C          1.51020       -0.04540        0.05580
C          1.28560       -0.85820       -0.98820
O          1.63630        1.28620       -0.15470
H          1.55850       -0.44150        1.06620
N          1.10330       -2.26330       -0.80970
C         -0.29340        1.45650       -4.67040
C         -0.26920        1.01610       -3.40520
C          0.13020       -0.38720       -3.05390
O          1.22700       -0.30370       -2.22480
C         -0.65240        2.87650       -4.98460
H         -0.04000        0.78770       -5.48830
H         -0.52450        1.69370       -2.59360
H          0.39530       -0.97290       -3.96060
H         -0.72500       -0.88650       -2.54560
C          1.71640        2.19380        0.87300
H          1.79850        3.21550        0.44830
H          2.60960        1.98730        1.50050
H          0.79750        2.14210        1.49650
O          0.94160       -2.96980       -1.75970
O          1.16010       -2.80430        0.38860
F         -1.92590        3.16070       -4.52700
H         -0.61520        3.03800       -6.08210
H          0.07530        3.56210       -4.49880
