20
TSA8_9_CCl3_CH2F_Br
C          1.43070       -0.42890        0.07400
C          2.03740       -0.96790        1.16730
C          2.03420       -0.26330       -1.30600
H          0.41860       -0.06030        0.18260
C          3.45530       -1.48050        1.16530
C         -0.85970       -1.91460        4.75600
C         -0.25950       -2.18040        3.59120
C          0.02460       -1.10630        2.58250
O          1.38960       -1.05840        2.36450
Br        -1.19040       -3.31440        6.01480
H         -1.16850       -0.90480        5.00890
H          0.03800       -3.19980        3.36300
H         -0.32150       -0.11540        2.94690
H         -0.53180       -1.36720        1.65800
Cl         2.44710       -1.84650       -2.01860
Cl         0.84250        0.50940       -2.38510
Cl         3.47110        0.79520       -1.26480
F          4.19860       -0.77490        2.09110
H          3.96300       -1.41220        0.18890
H          3.44420       -2.55220        1.45660
