20
TSA8_9_CCl3_CH2F_Br
C          1.01160       -1.18040        0.96280
C          1.86290       -0.17570        1.85110
C          1.73830       -1.67960       -0.33240
H          0.13730       -0.60460        0.58740
C          3.31490       -0.59780        2.11400
C          0.47120       -2.27740        1.92290
C         -0.37140       -1.62790        3.03920
C         -0.08420       -0.12810        3.19310
O          1.29690        0.13010        3.12910
Br        -0.58250       -3.72100        1.14620
H          1.34790       -2.76420        2.39790
H         -1.46390       -1.71280        2.84970
H         -0.48260        0.21340        4.17080
H         -0.61300        0.47330        2.41970
Cl         2.99350       -2.91470       -0.01520
Cl         0.59080       -2.39010       -1.50190
Cl         2.47520       -0.30280       -1.20290
F          3.94700        0.37330        2.86930
H          3.88340       -0.69220        1.17100
H          3.35100       -1.55660        2.67110
