22
TSA8_9_NO2_Et_Br
C          2.60960        1.27150       -0.99080
C          1.40500        0.47830       -1.46160
N          2.76410        1.13970        0.45020
H          3.51360        0.84100       -1.47720
C          1.56020       -0.69150       -2.40170
C          2.53790        2.75250       -1.44660
C          1.39420        3.53290       -0.84070
C          0.42290        4.06620       -1.58730
O          0.28840        0.76970       -1.05820
Br         4.19490        3.66510       -1.00870
H          2.45480        2.75640       -2.55670
H          1.35750        3.68200        0.23280
H          0.41330        3.95170       -2.66640
H         -0.37690        4.62560       -1.11240
O          3.75010        0.63620        0.89810
O          1.80400        1.50840        1.27060
C          2.13520       -0.26960       -3.75250
H          0.56770       -1.16110       -2.57930
H          2.22450       -1.44910       -1.93390
H          1.47010        0.47600       -4.23740
H          2.21500       -1.15920       -4.41260
H          3.14900        0.16680       -3.64000
