14
TSA8_9_Br_I_F
C          3.03110        0.75420        1.43380
C          1.48130        0.81680        1.57150
Br         3.59260       -0.93670        0.64100
H          3.38120        1.53270        0.72320
I          0.81440        2.82610        1.24100
C          3.65150        0.95920        2.81640
C          3.15170       -0.11160        3.79820
C          1.74140       -0.60190        3.42380
O          0.98120        0.44220        2.85790
F          5.03420        0.96400        2.76380
H          3.31060        1.94980        3.18820
H          3.81370       -1.00380        3.83780
H          1.23930       -0.99310        4.33240
H          1.78140       -1.45670        2.71290
