19
TSA8_9_F_CF3_NO2
C          2.92940        2.30090       -0.15610
C          1.46000        1.79890        0.03650
F          3.79940        1.38290        0.41040
H          3.18730        2.37570       -1.23450
C          0.57640        2.11900       -1.17560
C          3.08120        3.65650        0.54950
C          2.76120        3.50350        2.05130
C          1.73300        2.38260        2.28510
O          0.82380        2.31810        1.20860
N          4.39580        4.23460        0.34840
H          2.31910        4.33850        0.11330
H          3.65100        3.25920        2.67230
H          1.19360        2.56880        3.23650
H          2.23720        1.39570        2.40730
F         -0.69650        1.62460       -0.95860
F          0.49780        3.48460       -1.38030
F          1.09300        1.51690       -2.30880
O          5.37520        3.66990        0.73480
O          4.51660        5.39030       -0.26870
