22
TSA8_9_CN_CHF2_OMe
C          1.66630        0.03320        0.07220
C          1.50050        0.04050        1.42880
C          1.83470       -1.09090       -0.80550
H          1.57940        0.98540       -0.45120
C          1.40100        1.37880        2.09040
C          3.26330       -4.02400        1.71000
C          2.90290       -2.76990        2.01650
C          1.45290       -2.38680        1.97180
O          1.33150       -1.04420        2.25340
O          4.54990       -4.46420        1.67380
H          2.48700       -4.73770        1.46350
H          3.64690       -2.02580        2.29750
H          0.89430       -2.99680        2.72780
H          1.00160       -2.60870        0.98660
N          1.97020       -1.99780       -1.50970
F          0.08370        1.55150        2.40550
F          2.15330        1.42870        3.25550
H          1.73290        2.20500        1.41970
C          5.67780       -3.67920        1.54950
H          6.57550       -4.33390        1.54340
H          5.76990       -2.96050        2.38830
H          5.64040       -3.13860        0.57980
