22
TSA8_9_CN_CHF2_OMe
C          2.67030       -1.24320        0.60790
C          1.41880       -0.66630        1.37040
C          2.39010       -1.19500       -0.83840
H          3.56850       -0.63650        0.85250
C          1.58560        0.85010        1.59620
C          2.97600       -2.72020        0.93990
C          2.71030       -3.01850        2.42040
C          1.26230       -2.60620        2.67400
O          1.18340       -1.20410        2.66200
O          4.22190       -3.12880        0.37010
H          2.22040       -3.36670        0.43960
H          3.34410       -2.41960        3.11420
H          0.94820       -2.95770        3.67580
H          0.55150       -3.06590        1.94510
N          2.11790       -1.20360       -1.96550
F          0.40280        1.38270        2.07760
F          2.57310        1.06390        2.54870
H          1.86750        1.39070        0.67120
C          5.33810       -3.18120        1.23890
H          5.59550       -4.24400        1.43430
H          5.23960       -2.63060        2.19120
H          6.20330       -2.71370        0.72350
