22
TSA8_9_CH2F_CH2F_NH2
C          2.88210       -0.04610       -1.30670
C          1.46720       -0.57890       -1.42120
C          2.97860        0.86680       -0.06720
H          3.55480       -0.91620       -1.13290
C          1.21160       -2.05460       -1.30160
C          3.32510        0.61520       -2.64730
C          2.55130        1.88000       -2.96890
C          1.77920        1.98660       -4.05400
O          0.53160        0.18690       -1.60390
N          4.76220        0.90010       -2.64670
H          3.14960       -0.14640       -3.44270
H          2.63080        2.73330       -2.30220
H          1.67080        1.16240       -4.75140
H          1.24610        2.91190       -4.24860
F          4.27950        1.26730        0.16960
H          2.63640        0.30520        0.82870
H          2.33000        1.76150       -0.17310
F         -0.13740       -2.33380       -1.43370
H          1.55770       -2.41030       -0.30850
H          1.77060       -2.59320       -2.09520
H          4.98060        1.71510       -2.03180
H          5.05940        1.15610       -3.61690
