22
TSA8_9_CH2F_CH2F_NH2
C          1.77660       -0.11170       -0.12750
C          1.45100       -0.73670       -1.29650
C          2.10540        1.33000        0.15490
H          1.79920       -0.72050        0.77230
C          1.13920       -2.21020       -1.24690
C          4.01490        1.21390       -4.14200
C          3.27750        1.12570       -3.02500
C          1.77290        1.02100       -3.07270
O          1.36140       -0.18530       -2.54580
N          5.42810        1.29390       -4.07440
H          3.53650        1.21830       -5.11680
H          3.77800        1.11690       -2.06320
H          1.43150        1.05120       -4.12950
H          1.26050        1.86930       -2.58400
F          3.36760        1.40200        0.71330
H          1.37120        1.71400        0.89420
H          2.07640        2.01200       -0.69670
F         -0.14740       -2.42490       -1.70460
H          1.22520       -2.63870       -0.22540
H          1.85090       -2.75130       -1.90500
H          5.92110        1.28550       -3.16910
H          5.97820        1.35170       -4.94310
