24
TSA8_9_Me_Et_CN
C          2.42780       -1.52980        0.82120
C          1.34600       -0.74130        1.58810
C          2.07190       -1.45350       -0.67770
H          3.40040       -1.00060        0.94140
C          1.61180        0.55580        2.32030
C          2.56400       -3.05690        1.21470
C          1.46430       -3.52800        2.12870
C          0.27160       -3.86270        1.63320
O          0.18090       -1.10370        1.52080
C          3.86010       -3.46500        1.81380
H          2.55960       -3.69150        0.31060
H          1.61600       -3.54280        3.20610
H         -0.53440       -4.14530        2.29980
H          0.09250       -3.82780        0.56280
H          1.25760       -2.16860       -0.92810
H          2.95940       -1.70460       -1.29670
H          1.72790       -0.43630       -0.96190
C          1.18550        0.49110        3.79020
H          0.99680        1.34040        1.82560
H          2.67620        0.86220        2.25530
H          0.12420        0.17190        3.88280
H          1.27420        1.50020        4.24970
H          1.82890       -0.21420        4.35500
N          4.84420       -3.86810        2.28190
