24
TSA8_9_Me_Et_CN
C          1.59500       -0.03320        0.15430
C          1.35660       -0.31440        1.45840
C          1.72860       -0.90000       -1.11170
H          1.54050        1.03990       -0.19690
C          1.33150        0.84800        2.43760
C          2.16440       -5.00220        2.15860
C          2.16000       -3.66620        2.10350
C          1.01360       -2.84060        1.57220
O          1.13070       -1.54480        2.02320
C          3.38720       -5.65920        2.53050
H          1.31090       -5.59520        1.84820
H          3.04720       -3.15450        2.45820
H          0.05840       -3.29390        1.79300
H          0.88750       -2.90610        0.50100
H          1.44380       -1.93610       -1.06270
H          2.80900       -0.84980       -1.19420
H          1.29090       -0.50730       -2.06950
C          0.93830        0.39180        3.85950
H          0.56840        1.54670        2.08250
H          2.30480        1.42320        2.50780
H         -0.05050       -0.10460        3.79630
H          0.84990        1.25290        4.55100
H          1.66060       -0.33470        4.29950
N          4.40430       -6.17610        2.83720
