18
TSA8_9_OH_NH2_CN
C          1.60150       -0.08270       -0.04490
C          1.45640       -1.25110       -0.74660
O          1.63310        1.18860       -0.52000
H          1.58860       -0.14450        1.04010
N          1.45820       -2.44480       -0.01570
C          1.56440       -0.46600       -5.14500
C          1.47830        0.03530       -3.91210
C          0.52950       -0.56830       -2.91060
O          1.27170       -1.38840       -2.08690
C          2.70800       -0.11140       -5.96010
H          0.84900       -1.20370       -5.49380
H          2.21610        0.77950       -3.61710
H         -0.24320       -1.19330       -3.41420
H         -0.04200        0.16440       -2.32810
H          1.02480        1.57410       -1.15940
H          1.99100       -3.21760       -0.43890
H          0.49520       -2.76010        0.15340
N          3.62800        0.19250       -6.58110
