18
TSA8_9_OH_NH2_CN
C          2.33050       -0.38240       -2.02790
C          1.15690       -1.11680       -1.28910
O          2.34590        0.99360       -1.71330
H          3.30500       -0.80560       -1.69780
N          1.65340       -2.17530       -0.41560
C          2.14690       -0.59770       -3.54310
C          0.77090       -0.07320       -3.95440
C         -0.31240       -0.59270       -2.99220
O          0.18070       -1.64350       -2.18310
C          3.18900       -0.01410       -4.39790
H          2.17010       -1.69380       -3.72850
H          0.73610        1.04150       -3.95940
H         -1.15680       -0.96260       -3.60850
H         -0.71810        0.22550       -2.35380
H          1.43590        1.27650       -1.43050
H          2.12660       -2.90750       -0.99330
H          0.83330       -2.61850        0.05870
N          3.98830        0.42840       -5.10860
