23
TSA8_9_OMe_OH_OMe
C          0.74920        0.95240       -1.19600
C          1.56310       -0.32310       -1.28830
O          1.62280        2.06240       -1.07120
H          0.04080        0.89200       -0.33300
O          1.39900       -1.31430       -0.38660
C         -0.11760        1.14850       -2.45660
C         -1.08780       -0.00900       -2.60330
C         -1.07270       -0.80830       -3.67300
O          2.38380       -0.45940       -2.18250
O         -0.82390        2.37100       -2.32250
H          0.58470        1.20520       -3.32310
H         -1.81480       -0.19030       -1.81590
H         -0.36070       -0.65520       -4.47750
H         -1.78030       -1.62720       -3.74740
C          1.97060        2.26760        0.28220
H          2.70150        3.10090        0.33170
H          2.46840        1.37230        0.71500
H          1.08500        2.57160        0.88150
H          0.76180       -1.24430        0.33780
C         -1.46660        2.73140       -3.53060
H         -1.50560        3.83840       -3.58960
H         -2.50660        2.34180       -3.53430
H         -0.92990        2.39280       -4.44620
