20
TSA8_9_CCl3_H_CBr3
C          1.45670        1.04500        2.34320
C          1.21900        1.54930        0.90060
C          1.37330       -0.52240        2.37420
H          2.51740        1.27630        2.58410
H          1.58370        2.59080        0.74370
C          0.54790        1.94230        3.27000
C         -0.90450        1.96950        2.75720
C         -0.92390        2.32550        1.26720
O         -0.13830        1.41710        0.51760
C          0.59570        1.76350        4.81470
H          0.94110        2.97250        3.10640
H         -1.41360        1.00250        2.92330
H         -0.58260        3.37350        1.10540
H         -1.97200        2.27730        0.90570
Cl         2.01920       -1.21380        3.88290
Cl        -0.25210       -1.19860        2.08130
Cl         2.44010       -1.19690        1.10490
Br        -0.28780        3.28290        5.64940
Br        -0.34520        0.19860        5.49120
Br         2.42060        1.78370        5.48080
