18
TSA8_9_CCl3_CN_Br
C          1.22340       -1.65470        0.67240
C          2.23710       -1.21690        1.71190
C          1.69910       -1.42730       -0.81730
H          0.35500       -0.98050        0.81760
C          1.86000       -0.22090        2.68530
C          0.67790       -3.06880        1.04800
C         -0.74060       -3.25250        0.54840
C         -1.73460       -2.49830        1.04730
O          3.29450       -1.81240        1.84910
Br         1.84250       -4.53870        0.51860
H          0.59290       -3.15190        2.15480
H         -0.97460       -4.00150       -0.20030
H         -1.53830       -1.75680        1.82070
H         -2.75560       -2.61640        0.70510
Cl         0.94930       -2.53070       -2.00920
Cl         1.24380        0.22050       -1.33360
Cl         3.47070       -1.56150       -1.04720
N          1.54950        0.56000        3.47810
