23
TSA8_9_CBr3_CHF2_CH2F
C          0.99760       -1.75990        0.52690
C          2.14010       -2.78470        0.42540
C          1.43210       -0.26120        0.72940
H          0.55470       -1.71320       -0.49410
C          3.52800       -2.58930        0.99310
C         -0.16080       -2.26010        1.46860
C         -0.84280       -3.48350        0.88290
C         -2.12730       -3.46550        0.50790
O          1.91430       -3.83670       -0.15440
C          0.28950       -2.59320        2.90120
H         -0.92370       -1.45890        1.53880
H         -0.28980       -4.40910        0.76810
H         -2.73150       -2.56840        0.60330
H         -2.58480       -4.35930        0.09640
Br        -0.10190        0.92790        0.57470
Br         2.30920        0.20390        2.40020
Br         2.60650        0.29800       -0.71950
F          3.46840       -2.49320        2.36960
F          4.33310       -3.67040        0.67680
H          4.00860       -1.68500        0.57800
F         -0.79700       -3.00050        3.65660
H          0.72500       -1.71380        3.40280
H          1.03980       -3.41190        2.89660
