15
TSA8_9_F_OH_H
C          1.46270       -1.58330       -1.40740
C          1.02010       -1.41880        0.05370
F          0.91250       -0.55980       -2.16070
H          2.56880       -1.51700       -1.48610
O          1.69210       -2.29680        0.91220
C          0.97160       -2.93330       -1.93440
C         -0.53640       -3.04080       -1.71120
C         -0.83960       -2.80640       -0.22530
O         -0.38860       -1.52900        0.20070
H          1.21340       -3.04320       -3.01280
H          1.47630       -3.75500       -1.38040
H         -1.06600       -2.27600       -2.32050
H         -0.40220       -3.61360        0.40360
H         -1.93930       -2.85670       -0.08390
H          2.16370       -1.70740        1.55300
