20
TSA8_9_I_CH2F_CBr3
C          1.73590        0.08970       -0.13460
C          1.44030       -0.02100       -1.45050
I          2.22340        1.87170        0.91390
H          1.68850       -0.79100        0.49840
C          1.03470       -1.35390       -2.01410
C          3.93510        2.83960       -4.21140
C          2.96130        2.00070       -3.82960
C          2.44520        1.99130       -2.42280
O          1.46460        1.02400       -2.32070
C          4.46470        2.84290       -5.62180
H          4.35560        3.52940       -3.48450
H          2.53800        1.30360       -4.54970
H          2.01140        2.98490       -2.17860
H          3.29970        1.77360       -1.74770
F         -0.23210       -1.25950       -2.55910
H          1.03390       -2.15640       -1.24520
H          1.75000       -1.63880       -2.81370
Br         5.86870        4.16590       -5.80000
Br         5.20640        1.10680       -6.07240
Br         3.05270        3.27910       -6.87880
