23
TSA8_9_CCl3_Me_CBr3
C          0.64370       -1.29290        1.12570
C          1.68950       -2.13860        0.33120
C          1.10270        0.15300        1.48140
H         -0.07390       -1.08890        0.29880
C          2.97500       -2.57870        1.02340
C         -0.21490       -2.16600        2.13510
C         -0.24280       -3.62410        1.60700
C         -0.13190       -3.69020        0.08190
O          1.12410       -3.22310       -0.40630
C          0.03600       -2.20150        3.68940
H         -1.24940       -1.76470        2.04030
H          0.60940       -4.21430        2.00690
H         -0.96280       -3.13020       -0.39700
H         -0.23810       -4.75560       -0.21100
Cl         1.86530        0.91040        0.05140
Cl        -0.30250        1.18770        1.86560
Cl         2.29800        0.25520        2.80070
H          2.78280       -3.36670        1.77090
H          3.50170       -1.72290        1.48220
H          3.65640       -3.01110        0.26060
Br        -0.32240       -0.52900        4.60500
Br        -1.24000       -3.41810        4.52230
Br         1.79380       -2.81420        4.23770
