17
TSA8_9_CCl3_F_Cl
C          1.79750       -0.01780       -0.00150
C          1.10850       -1.12310        0.33620
C          2.12310        0.48530       -1.39550
H          2.16310        0.59710        0.81740
F          0.91990       -1.38610        1.65890
C         -0.20820       -5.06570       -1.73710
C         -0.54350       -3.78790       -1.52870
C         -0.16540       -3.06450       -0.26940
O          0.60230       -1.96830       -0.59210
Cl        -0.67040       -5.87380       -3.22540
H          0.35350       -5.62460       -0.99390
H         -1.10660       -3.25120       -2.28670
H          0.40340       -3.73080        0.41690
H         -1.09420       -2.73200        0.24370
Cl         1.52710       -0.50470       -2.76010
Cl         1.43340        2.11590       -1.57390
Cl         3.89210        0.60640       -1.54920
