20
TSA8_9_CBr3_CF3_H
C          1.40400       -0.43730        0.18920
C          1.99580       -1.04380        1.26220
C          1.97860       -0.15280       -1.19290
H          0.38290       -0.10820        0.30890
C          3.42640       -1.54520        1.28670
C         -1.65890       -1.52550        4.46350
C         -0.39420       -1.46870        4.04050
C         -0.06830       -1.15910        2.60970
O          1.29770       -1.24270        2.42310
H         -1.87440       -1.75340        5.50200
H         -2.48430       -1.35500        3.77830
H          0.40940       -1.65410        4.74900
H         -0.44130       -0.13760        2.37480
H         -0.56740       -1.90480        1.95460
Br         0.64340        0.78580       -2.24510
Br         3.53180        1.00770       -1.17210
Br         2.36910       -1.77980       -2.17000
F          4.31990       -0.51020        1.11710
F          3.69400       -2.12630        2.51450
F          3.63140       -2.50620        0.31930
