24
TSA8_9_OH_CH2F_Et
C          1.71350        0.08630        0.10320
C          1.42160        0.53590        1.33880
O          1.80340       -1.23410       -0.15730
H          1.85050        0.78740       -0.71520
C          1.26510        2.01140        1.59230
C          4.22340       -1.11340        4.26410
C          3.21400       -0.46190        3.66750
C          2.17770       -1.20120        2.86580
O          1.23140       -0.31410        2.38380
C          5.24580       -0.39880        5.10800
H          4.30190       -2.19230        4.15860
H          3.12860        0.61500        3.77830
H          1.67080       -1.92000        3.54360
H          2.65350       -1.77660        2.04610
H          1.97890       -1.54970       -1.05310
F         -0.00790        2.26610        2.06540
H          1.43000        2.61100        0.67100
H          2.00480        2.33220        2.35220
C          6.04500        0.62880        4.30920
H          5.95170       -1.14910        5.52440
H          4.73370        0.10730        5.95480
H          6.57920        0.13370        3.47100
H          6.79230        1.11080        4.97450
H          5.37950        1.41950        3.90400
