18
TSA8_9_F_OH_CCl3
C          3.35100        1.47800       -0.33590
C          1.89540        1.39370       -0.71980
F          3.73700        0.27050        0.22130
H          3.92590        1.62670       -1.27350
O          1.53710        1.54090       -2.01320
C          3.64130        2.66220        0.62940
C          2.91140        2.46430        1.94560
C          1.97770        3.31960        2.37470
O          1.04130        1.17570        0.12690
C          5.16150        2.87820        0.88790
H          3.27150        3.58780        0.13120
H          3.15160        1.60270        2.56170
H          1.70540        4.19410        1.79210
H          1.47750        3.14470        3.32150
H          0.61150        1.48570       -2.29000
Cl         5.41010        4.30750        1.93170
Cl         5.93920        1.47970        1.68730
Cl         6.03390        3.20280       -0.63690
