18
TSA8_9_F_OH_CCl3
C          1.98060        0.04900       -0.04620
C          1.56680        1.19060       -0.62800
F          2.39060       -0.02410        1.24630
H          1.97900       -0.87060       -0.62350
O          1.15890        1.12850       -1.91260
C          4.29440        3.86940        1.34420
C          3.56720        2.75620        1.15310
C          2.06070        2.76760        1.22210
O          1.51950        2.40170        0.00280
C          5.79920        3.85860        1.26100
H          3.78930        4.80720        1.56010
H          4.07410        1.82150        0.93530
H          1.69980        3.79140        1.45840
H          1.69120        2.10540        2.03210
H          0.85240        1.91930       -2.37800
Cl         6.43560        5.49580        1.56140
Cl         6.48450        2.75500        2.48290
Cl         6.32680        3.34030       -0.36180
