22
TSA8_9_I_NH2_Et
C          3.27660        0.67320        1.89700
C          1.86230        1.17440        1.64620
I          3.85710       -0.48110        0.16110
H          3.92030        1.57800        1.94830
N          1.59940        1.95230        0.56900
C          3.41390       -0.07800        3.26040
C          2.68510       -1.40770        3.25050
C          1.65390       -1.66080        4.06200
O          0.95310        0.89890        2.41580
C          4.87120       -0.24750        3.76800
H          2.95200        0.59210        4.02200
H          3.00690       -2.18780        2.56810
H          1.29360       -0.91620        4.76470
H          1.16110       -2.62690        4.02440
H          0.64440        2.30090        0.39700
H          2.34630        2.21350       -0.08990
C          5.78340       -1.19080        2.98310
H          4.81800       -0.64000        4.80750
H          5.35560        0.75250        3.81710
H          5.35590       -2.21370        2.93930
H          6.76510       -1.25240        3.49870
H          5.97970       -0.81180        1.96530
