22
TSA8_9_I_NH2_Et
C          1.91840        0.04600        0.10740
C          1.45060        0.80180        1.13290
I          2.51230       -1.99470        0.02860
H          2.00150        0.51160       -0.87010
N          1.09150        2.14740        0.85500
C          3.89990       -0.53290        4.39320
C          3.28650       -0.60000        3.20160
C          1.78800       -0.71970        3.08150
O          1.27740        0.37880        2.42060
C          5.39380       -0.38780        4.50900
H          3.31540       -0.56760        5.30850
H          3.87890       -0.55150        2.29450
H          1.32910       -0.74850        4.09270
H          1.48510       -1.65830        2.58440
H          0.72940        2.74820        1.60990
H          1.18650        2.54840       -0.09020
C          6.13360       -1.58450        3.91430
H          5.66280       -0.30680        5.58390
H          5.71530        0.54420        3.99550
H          5.83330       -2.51820        4.43550
H          7.22740       -1.44140        4.03960
H          5.91710       -1.68590        2.83000
