22
TSA8_9_NO2_CH2F_Me
C          1.89460       -0.06120       -0.04670
C          1.44640       -0.84100       -1.08310
N          1.92020        1.36100        0.09480
H          2.28720       -0.59780        0.81510
C          1.50270       -2.33740       -0.89770
C          2.85980        1.29890       -4.51400
C          2.35100        1.18770       -3.27910
C          0.94380        0.70120       -3.03610
O          0.95600       -0.46990       -2.30790
C          4.26370        1.77570       -4.72350
H          2.25990        1.04250       -5.38270
H          2.97310        1.44920       -2.42940
H          0.45070        0.47890       -4.00650
H          0.29130        1.45800       -2.57210
O          2.43630        1.82390        1.06650
O          1.25410        2.16640       -0.69310
F          0.22890       -2.86220       -1.01470
H          1.91630       -2.64510        0.08640
H          2.14690       -2.77660       -1.68810
H          4.97520        1.08730       -4.21980
H          4.38360        2.79790       -4.30680
H          4.49460        1.79950       -5.80900
