22
TSA8_9_NO2_CH2F_Me
C          2.78070        0.19410       -1.73960
C          1.40890       -0.52290       -1.55020
N          2.89330        1.28080       -0.78100
H          3.61840       -0.52330       -1.57040
C          1.55590       -1.93770       -0.99740
C          2.90610        0.68650       -3.20090
C          1.65720        1.46900       -3.64270
C          0.37700        0.81290       -3.09260
O          0.62550       -0.53270       -2.73610
C          4.19560        1.46510       -3.47160
H          2.93090       -0.23050       -3.83230
H          1.66250        2.54510       -3.36470
H         -0.42310        0.86890       -3.85880
H         -0.01160        1.37940       -2.21290
O          3.77950        1.27910        0.01960
O          2.01620        2.26210       -0.76580
F          0.30600       -2.48210       -0.76870
H          2.11670       -1.91270       -0.03950
H          2.10330       -2.57440       -1.72490
H          5.07720        0.84450       -3.20400
H          4.22140        2.40260       -2.87680
H          4.26230        1.72430       -4.54970
