18
TSA8_9_NO2_NO2_H
C          2.31110        1.33710        0.13820
C          1.26390        0.88130       -0.86520
N          2.18120        0.55940        1.35730
H          3.32490        1.17580       -0.28740
N          1.61970        0.33970       -2.06670
C          2.19880        2.83950        0.47610
C          2.24460        3.72760       -0.74050
C          1.12880        4.04430       -1.40690
O          0.07950        0.99850       -0.58230
H          3.05810        3.10320        1.13140
H          1.27560        3.06270        1.05410
H          3.19240        4.14790       -1.06280
H          1.17110        4.70100       -2.26860
H          0.16260        3.66170       -1.09020
O          3.08270       -0.12930        1.72850
O          1.07080        0.60770        2.06360
O          0.77790       -0.00920       -2.83930
O          2.88560        0.19080       -2.39330
