25
TSA8_9_CCl3_NH2_Et
C          2.13640        0.34790        0.23400
C          1.81230        1.27470       -0.72620
C          1.71470       -0.05240        1.64710
H          2.92620       -0.33140       -0.08290
N          2.52580        1.18880       -1.95470
C          1.01330        4.94730        1.42940
C          1.06810        3.61530        1.26480
C          0.15720        2.90100        0.29640
O          0.88940        2.28260       -0.68660
C          1.92230        5.67480        2.38330
H          0.30280        5.53610        0.85560
H          1.79020        3.03800        1.83230
H         -0.50170        3.64220       -0.20400
H         -0.54230        2.19490        0.76350
Cl         0.40650        0.76020        2.52360
Cl         1.23940       -1.76790        1.57900
Cl         3.15640        0.06360        2.68520
H          2.32580        1.85970       -2.71100
H          3.24960        0.47380       -2.12290
C          1.68920        5.24720        3.83090
H          1.72170        6.76490        2.30490
H          2.98150        5.49150        2.10130
H          0.63640        5.44680        4.12420
H          2.36050        5.82600        4.49970
H          1.90700        4.16680        3.96500
