25
TSA8_9_CCl3_NH2_Et
C          2.15750        2.22710        0.69400
C          1.33700        1.71790       -0.54970
C          2.15710        1.15910        1.83720
H          3.22310        2.30650        0.37880
N          2.22080        1.34600       -1.65250
C          1.69270        3.69380        1.00980
C          0.15620        3.84070        1.05680
C         -0.51660        2.92180        0.03070
O          0.37700        2.65160       -1.02350
C          2.42300        4.50300        2.11250
H          1.98980        4.21940        0.07190
H         -0.31470        3.65310        2.04260
H         -1.43520        3.40890       -0.35470
H         -0.86160        1.97120        0.50140
Cl         0.59520        1.02570        2.68860
Cl         2.53650       -0.46660        1.19750
Cl         3.45410        1.47340        3.02230
H          1.63700        0.97590       -2.43660
H          2.86000        0.57950       -1.34890
C          1.89840        4.34910        3.54710
H          2.29570        5.58350        1.87750
H          3.51140        4.28450        2.06250
H          0.85650        4.71940        3.62570
H          2.51850        4.97300        4.22520
H          1.91850        3.31460        3.91770
