17
TSA8_9_Br_CCl3_Br
C          3.05360       -0.91720       -1.24230
C          1.58800       -1.34700       -0.97590
Br         3.08460        1.03360       -1.18530
H          3.75090       -1.18750       -0.42320
C          1.31600       -2.73300       -0.34580
C          3.57930       -1.41780       -2.60160
C          2.45210       -1.60140       -3.62910
C          1.24140       -0.72890       -3.28640
O          0.65820       -1.04320       -2.02240
Br         4.59310       -3.07020       -2.43550
H          4.31750       -0.67730       -2.97520
H          2.08670       -2.64660       -3.63170
H          0.47520       -0.90820       -4.06920
H          1.49770        0.34820       -3.33960
Cl         1.52690       -4.09920       -1.46600
Cl         2.34810       -2.99990        1.08380
Cl        -0.37380       -2.77120        0.21770
