20
TSA8_9_Et_H_F
C          1.75020        0.26390        0.03930
C          1.29820        1.35820        0.70140
C          1.87660       -1.17270        0.48800
H          2.05740        0.43650       -0.98950
H          1.29510        2.27830        0.12680
C          2.50420        0.70650        4.83170
C          2.16860        0.36160        3.58320
C          0.78150        0.59830        3.04190
O          0.81510        1.47040        1.97480
F          3.76540        0.48360        5.28370
H          1.78240        1.16820        5.49920
H          2.92170       -0.09280        2.95120
H          0.15570        1.06860        3.83090
H          0.25400       -0.33720        2.77480
C          3.31490       -1.64990        0.31030
H          1.21910       -1.79430       -0.15640
H          1.58270       -1.35550        1.52550
H          3.62550       -1.55330       -0.75280
H          3.39290       -2.71830        0.60240
H          4.00430       -1.05330        0.94420
