20
TSA8_9_Et_H_F
C          2.29800        0.59950        1.28790
C          0.92100        1.33040        1.21830
C          2.16030       -0.85170        0.75520
H          2.99740        1.12050        0.59610
H          1.10610        2.35650        0.83450
C          2.81630        0.72190        2.73260
C          1.81930        0.10560        3.72260
C          0.36950        0.33060        3.25660
O          0.27350        1.50340        2.48040
F          4.08240        0.19770        2.91190
H          2.87680        1.80940        2.95920
H          1.96770       -0.98500        3.87610
H         -0.28950        0.40390        4.14600
H         -0.02080       -0.53190        2.67400
C          3.49560       -1.58230        0.60880
H          1.70920       -0.79840       -0.26000
H          1.49190       -1.46670        1.38710
H          4.18020       -1.00760       -0.05050
H          3.31930       -2.57830        0.15020
H          3.97750       -1.75090        1.59130
