16
TSA8_9_Cl_I_NO2
C          2.39700        0.70390       -2.20480
C          1.12470        0.98740       -1.35230
Cl         3.84060        0.63650       -1.14190
H          2.31980       -0.30260       -2.66870
I         -0.55050       -0.03950       -2.20800
C          2.50280        1.79970       -3.27890
C          2.60780        3.18710       -2.61640
C          1.87370        3.21470       -1.26270
O          0.74730        2.36580       -1.28150
N          3.58720        1.57250       -4.21670
H          1.54070        1.77770       -3.84000
H          3.65460        3.51040       -2.42520
H          1.56440        4.25640       -1.03940
H          2.54570        2.91690       -0.42750
O          4.72370        1.56520       -3.84920
O          3.32060        1.38480       -5.49150
