22
TSA8_9_OMe_CN_CBr3
C          2.47330       -1.47710        0.97600
C          1.22640       -0.57360        1.36020
O          2.45890       -1.97750       -0.36980
H          3.41280       -0.89420        1.11000
C          1.57260        0.80370        1.73190
C          2.45580       -2.69100        1.96310
C          1.09850       -3.37700        1.77260
C         -0.04230       -2.38730        2.02400
O          0.43630       -1.11450        2.40290
C          3.58780       -3.75690        1.95980
H          2.49860       -2.26590        2.99130
H          1.01610       -3.80170        0.74610
H         -0.61430       -2.79930        2.87880
H         -0.73520       -2.31720        1.15810
C          1.52350       -1.37380       -1.25230
H          1.43650       -2.01540       -2.15450
H          1.86600       -0.37160       -1.58820
H          0.48810       -1.34810       -0.85030
N          1.80730        1.89770        2.02820
Br         3.18840       -5.06850        3.35340
Br         3.77900       -4.73920        0.29540
Br         5.30620       -2.99750        2.43490
