22
TSA8_9_CH2F_NO2_CH2F
C          1.76750       -0.12860        0.05630
C          1.44240       -1.42530        0.26310
C          1.87000        0.50490       -1.30480
H          1.95540        0.52250        0.90420
N          1.31970       -1.93980        1.58930
C          2.95130       -5.19170       -1.06020
C          2.92460       -3.90040       -0.69700
C          2.20630       -2.86400       -1.52170
O          1.20450       -2.25220       -0.78890
C          3.66960       -6.21810       -0.23870
H          2.44690       -5.51600       -1.96650
H          3.43490       -3.58450        0.20910
H          1.74250       -3.33440       -2.41480
H          2.94080       -2.11190       -1.87940
F          3.15170        0.98600       -1.49160
H          1.15370        1.35080       -1.36160
H          1.62440       -0.19530       -2.12800
O          1.00680       -3.07940        1.75750
O          1.52990       -1.17090        2.63700
F          5.01300       -5.90070       -0.15280
H          3.56500       -7.21550       -0.71540
H          3.23280       -6.26090        0.78120
