19
TSA8_9_I_CF3_NH2
C          2.72790        2.00970       -1.37520
C          1.28520        1.71000       -0.84480
I          4.18620        1.10240       -0.06790
H          2.90000        1.51460       -2.35510
C          0.33790        1.29350       -1.97680
C          2.89620        3.53150       -1.50650
C          2.65670        4.22050       -0.14880
C          1.62970        3.44060        0.69000
O          0.68870        2.80850       -0.14860
N          4.18810        3.90180       -2.08390
H          2.09880        3.87600       -2.20070
H          3.57640        4.32680        0.46690
H          1.12000        4.13630        1.38780
H          2.12500        2.68050        1.33530
F         -0.91080        1.01550       -1.45240
F          0.21670        2.30870       -2.90910
F          0.81540        0.15510       -2.60120
H          4.96520        3.66420       -1.42730
H          4.20410        4.93350       -2.25150
