23
TSA8_9_CHF2_H_Et
C          2.63040       -1.51740        0.12340
C          1.10770       -1.41960        0.36140
C          2.97730       -0.61230       -1.06670
H          3.15300       -1.10500        1.01560
H          0.74980       -0.53830        0.93440
C          3.01920       -3.03170        0.02180
C          2.00030       -3.84740       -0.80140
C          0.55110       -3.43410       -0.46700
O          0.50860       -2.64810        0.70860
C          4.49470       -3.38820       -0.28420
H          2.86820       -3.38380        1.06900
H          2.13970       -3.78910       -1.89940
H         -0.07020       -4.34600       -0.34150
H          0.09650       -2.88030       -1.32330
F          4.34350       -0.44470       -1.17850
F          2.45420       -1.11360       -2.24510
H          2.55140        0.40080       -0.89240
C          4.91240       -3.37950       -1.76090
H          4.66830       -4.43170        0.06330
H          5.16030       -2.72560        0.31140
H          4.33770       -4.13510       -2.33460
H          5.98530       -3.65740       -1.83250
H          4.78460       -2.40310       -2.25220
