16
TSA8_9_NH2_F_F
C          2.76240        0.63940       -1.39280
C          1.58880       -0.27970       -1.65750
N          2.69910        1.18170       -0.03350
H          3.65670       -0.01940       -1.45850
F          1.36010       -1.31760       -0.81020
C          2.98480        1.78910       -2.41390
C          2.02870        2.96230       -2.29710
C          0.72730        2.92960       -2.60090
O          0.88330       -0.15900       -2.64360
F          4.25630        2.28840       -2.18440
H          2.97720        1.39150       -3.45150
H          2.43760        3.91150       -1.96050
H          0.23500        2.04770       -2.97330
H          0.13210        3.82990       -2.49140
H          2.72050        0.39930        0.65990
H          1.80990        1.71530        0.10080
