16
TSA8_9_NH2_F_F
C          1.84590       -0.02530       -0.17990
C          1.45070       -0.33220       -1.44080
N          1.94810        1.26710        0.40080
H          2.10060       -0.86260        0.46420
F          1.40620       -1.65690       -1.74240
C          3.12940        2.93180       -3.71130
C          2.61140        2.32630       -2.63780
C          1.16800        1.88670       -2.58850
O          1.08100        0.51630       -2.44720
F          4.43520        3.30670       -3.71470
H          2.52370        3.13150       -4.58980
H          3.25770        2.14590       -1.78590
H          0.66690        2.15280       -3.54370
H          0.58700        2.40420       -1.80240
H          2.26360        1.34130        1.37830
H          1.70840        2.13970       -0.07080
