26
TSA8_9_CCl3_Et_CBr3
C          1.72120       -0.05430       -0.02240
C          1.51220        1.27440        0.13790
C          1.78240       -1.12040        1.05880
H          1.88750       -0.42520       -1.03020
C          1.52050        2.17910       -1.08410
C          3.96780        4.00490        2.42860
C          3.26410        2.96060        1.97000
C          1.76880        3.01890        1.82020
O          1.30590        1.79330        1.37720
C          5.46320        3.92900        2.60040
H          3.44760        4.92310        2.68900
H          3.78170        2.03980        1.71110
H          1.46960        3.83870        1.13640
H          1.32700        3.21980        2.81840
Cl         1.49760       -0.58830        2.74100
Cl         0.58240       -2.38050        0.68480
Cl         3.39960       -1.86290        1.00280
C          0.14720        2.81320       -1.30090
H          1.77120        1.61000       -2.00580
H          2.29270        2.96710       -0.96140
H         -0.61430        2.02260       -1.46920
H          0.17710        3.46910       -2.19720
H         -0.16140        3.42470       -0.42920
Br         6.14090        5.61190        3.27910
Br         5.92680        2.53370        3.86780
Br         6.33050        3.56080        0.90390
