26
TSA8_9_CCl3_Et_CBr3
C          2.92330        1.30550        0.67170
C          1.47620        1.71230        0.27350
C          2.89090       -0.13860        1.28940
H          3.49980        1.18060       -0.27100
C          1.35800        2.67670       -0.92750
C          3.54430        2.52250        1.46170
C          2.60540        2.97430        2.59270
C          1.19800        3.21930        2.04490
O          0.67860        2.07140        1.39570
C          5.02010        2.46520        1.95110
H          3.54850        3.35250        0.72210
H          2.57240        2.23710        3.41520
H          1.17920        4.10430        1.37570
H          0.53510        3.47330        2.89770
Cl         2.07350       -0.26700        2.87030
Cl         2.01520       -1.23760        0.17960
Cl         4.50880       -0.87260        1.41430
C         -0.09860        2.87570       -1.33260
H          1.90280        2.23580       -1.78970
H          1.81230        3.66440       -0.71280
H         -0.56220        1.89980       -1.59150
H         -0.14990        3.54250       -2.21900
H         -0.67180        3.34530       -0.50550
Br         5.57350        4.25450        2.47970
Br         5.32740        1.36090        3.52560
Br         6.22710        1.94270        0.52090
