18
TSA8_9_CN_I_CH2F
C          2.97090        0.91510        0.81360
C          1.59070        1.49880        0.39330
C          2.63060       -0.41340        1.36220
H          3.60340        0.75410       -0.08980
I          1.51790        2.11100       -1.65860
C          3.59780        1.91960        1.84420
C          2.65400        1.96220        3.03740
C          1.22500        2.25420        2.57560
O          1.15940        2.58850        1.20010
C          5.04370        1.85910        2.38550
H          3.58620        2.90740        1.33280
H          2.68890        0.98270        3.57700
H          0.92270        3.14340        3.16090
H          0.52500        1.42650        2.82220
N          2.35140       -1.46640        1.76870
F          5.29950        0.73870        3.15190
H          5.16540        2.75280        3.05060
H          5.81440        1.97850        1.59620
