19
TSA8_9_F_NH2_CBr3
C          3.13800        1.46710       -0.19290
C          1.66900        1.41920       -0.72090
F          3.19630        0.87350        1.05690
H          3.79160        0.87260       -0.86480
N          1.66950        1.36040       -2.17910
C          3.57190        2.94320       -0.10770
C          2.62970        3.68830        0.86940
C          1.24160        3.02870        0.94020
O          0.86000        2.53140       -0.32230
C          5.07050        3.17190        0.22410
H          3.39870        3.37340       -1.11900
H          3.01210        3.73680        1.91140
H          0.50150        3.77460        1.29630
H          1.22430        2.20150        1.68570
H          0.67750        1.31350       -2.50340
H          2.12470        0.46780       -2.47640
Br         5.47620        5.07340        0.21750
Br         5.59540        2.45990        1.95800
Br         6.20850        2.35740       -1.12360
