25
TSA8_9_CF3_OMe_OMe
C          1.65950       -0.34620       -0.19820
C          1.79020        0.96930       -0.45130
C          1.54310       -0.96840        1.17580
H          1.64810       -1.03120       -1.04120
O          1.87360        1.35510       -1.75630
C          4.65470        2.47250        2.27370
C          3.32820        2.65130        2.13220
C          2.69710        2.87470        0.78870
O          1.79590        1.85180        0.58270
O          5.25430        2.21920        3.46860
H          5.29280        2.51560        1.39550
H          2.66760        2.61370        2.99240
H          3.48530        2.88680        0.00970
H          2.16230        3.84750        0.78730
F          2.60470       -1.83270        1.36480
F          1.54940       -0.03780        2.19950
F          0.36580       -1.68730        1.24490
C          1.87370        2.64440       -2.24490
H          1.82120        2.60260       -3.35210
H          2.80880        3.17650       -1.99240
H          0.98850        3.19950       -1.86970
C          4.60580        2.02440        4.67110
H          5.35840        1.81940        5.45950
H          3.92420        1.14930        4.59810
H          4.03190        2.93220        4.95300
