23
TSA8_9_I_Et_CHF2
C          2.21360       -0.93430       -2.08130
C          0.95740       -1.74840       -1.88890
I          1.99560        0.86100       -0.91270
H          3.08700       -1.48640       -1.66790
C          1.03280       -3.11640       -1.25360
C          2.47560       -0.61350       -3.57810
C          3.69980        0.26570       -3.71170
C          3.63640        1.48820       -4.25170
O         -0.11700       -1.28830       -2.25230
C          2.69720       -1.88240       -4.42740
H          1.58860       -0.07780       -3.98500
H          4.66010       -0.10380       -3.36290
H          2.69700        1.89570       -4.61360
H          4.53350        2.09220       -4.33350
C         -0.33130       -3.79820       -1.14400
H          1.46570       -3.01600       -0.23530
H          1.70360       -3.75880       -1.86310
H         -1.01710       -3.18930       -0.51660
H         -0.21310       -4.79710       -0.67460
H         -0.77750       -3.93050       -2.15320
F          3.77300       -2.61300       -3.95130
F          1.57120       -2.68520       -4.43510
H          2.90490       -1.58990       -5.47920
