23
TSA8_9_I_Et_CHF2
C          2.80120       -1.62380       -2.14670
C          1.30670       -1.30450       -1.80490
I          4.09050       -0.26240       -1.07660
H          3.08170       -2.62180       -1.74490
C          0.51390       -2.60310       -1.58540
C          2.96790       -1.58730       -3.67890
C          2.57690       -0.19840       -4.21960
C          1.48580        0.45020       -3.35120
O          0.63590       -0.53460       -2.80940
C          4.34460       -2.03620       -4.19530
H          2.22780       -2.31320       -4.08290
H          3.42560        0.51780       -4.27380
H          0.90290        1.16410       -3.96900
H          1.92460        1.05690       -2.52870
C         -0.92180       -2.31880       -1.15220
H          1.00260       -3.19890       -0.78410
H          0.50250       -3.20460       -2.52010
H         -0.92890       -1.73360       -0.20820
H         -1.45390       -3.27840       -0.98190
H         -1.46470       -1.75270       -1.93810
F          5.34940       -1.18070       -3.78240
F          4.62570       -3.31560       -3.75020
H          4.33260       -2.04800       -5.30610
