21
TSA8_9_Me_CHF2_CN
C          1.62270        0.13070       -1.72900
C          2.03010       -1.33390       -1.48840
C          2.28290        1.18300       -0.82030
H          0.56370        0.19480       -1.42600
C          1.79340       -2.02420       -0.16880
C          1.63970        0.54380       -3.24050
C          0.64180       -0.32410       -3.98250
C         -0.65810       -0.26780       -3.65690
O          2.45850       -2.00660       -2.41640
C          2.94640        0.49870       -3.91360
H          1.30060        1.58660       -3.34910
H          0.96110       -1.01110       -4.76470
H         -1.38620       -0.89710       -4.14680
H         -1.00860        0.41770       -2.88730
H          2.01490        2.20070       -1.18780
H          3.38570        1.11100       -0.75440
H          1.84250        1.11530        0.19940
F          2.06130       -3.38110       -0.27750
F          2.60350       -1.48700        0.81060
H          0.72760       -1.91500        0.12200
N          3.96040        0.42580       -4.48020
