21
TSA8_9_Me_CHF2_CN
C          1.95870        0.11140       -1.82550
C          0.79480       -0.80120       -1.28060
C          2.11530        1.33230       -0.87540
H          2.87620       -0.52020       -1.81110
C          1.36320       -1.83650       -0.27890
C          1.72810        0.61780       -3.28340
C          0.99370       -0.41200       -4.12190
C         -0.25910       -0.79120       -3.35160
O          0.12720       -1.57740       -2.25790
C          2.98070        0.98660       -3.96100
H          1.05770        1.50180       -3.28210
H          1.60290       -1.32860       -4.30030
H         -0.91700       -1.40040       -4.00050
H         -0.85360        0.10080       -3.03520
H          1.58890        2.23070       -1.27180
H          3.17700        1.60520       -0.71980
H          1.63880        1.15480        0.11370
F          2.15060       -2.75880       -0.95660
F          2.12480       -1.24870        0.71340
H          0.52980       -2.39690        0.19240
N          3.97140        1.26200       -4.49280
