21
TSA8_9_NO2_NH2_CCl3
C          2.53450        0.52780       -2.16760
C          1.40010       -0.46030       -1.74880
N          2.65790        1.57140       -1.16330
H          3.49910       -0.02680       -2.22250
N          1.92980       -1.79610       -1.49850
C          2.23650        1.08520       -3.58930
C          0.79790        1.63920       -3.67190
C         -0.18150        0.76500       -2.87000
O          0.34720       -0.53330       -2.70270
C          3.29250        2.05820       -4.18200
H          2.24360        0.18670       -4.24840
H          0.68220        2.69640       -3.35160
H         -1.15440        0.72150       -3.40130
H         -0.40600        1.22030       -1.87690
O          3.68260        1.70100       -0.56390
O          1.64260        2.35730       -0.87600
H          1.13940       -2.41260       -1.20320
H          2.59650       -1.74110       -0.69490
Cl         2.88600        2.43010       -5.88090
Cl         3.39230        3.60890       -3.30070
Cl         4.91430        1.31130       -4.18420
