25
TSA8_9_CCl3_Et_NO2
C          1.41390       -0.10050       -0.10080
C          1.31100        0.61180       -1.24660
C          1.90190        0.48070        1.20870
H          1.12460       -1.14780       -0.10100
C          0.74190       -0.07690       -2.49070
C          4.74760        3.24170       -1.51810
C          3.42660        3.42930       -1.34430
C          2.40510        2.64110       -2.11260
O          1.63480        1.93500       -1.21140
N          5.72160        3.97080       -0.77960
H          5.09310        2.50460       -2.23840
H          3.06720        4.15770       -0.62260
H          2.93120        1.96740       -2.81030
H          1.76170        3.34590       -2.67910
Cl         0.86120        1.83350        1.72990
Cl         1.85100       -0.76900        2.47810
Cl         3.58590        1.04630        1.06690
C          1.62210       -0.07800       -3.73720
H         -0.22670        0.40000       -2.75010
H          0.52800       -1.14330       -2.25760
H          1.70360        0.93540       -4.17390
H          1.14020       -0.70330       -4.51880
H          2.62420       -0.50010       -3.51210
O          5.39970        4.78530        0.03120
O          6.99910        3.73140       -0.98360
