17
TSA8_9_CN_Br_NH2
C          2.35370       -1.71220       -0.14750
C          2.78370       -1.39610        1.25770
C          2.76440       -0.73380       -1.17170
H          1.28400       -1.48890       -0.01430
Br         2.27140        0.30490        1.98250
C          2.47780       -3.20760       -0.60860
C          1.21320       -3.50480       -1.37230
C          0.06700       -3.56670       -0.67750
O          3.15320       -2.27390        2.02160
N          3.68490       -3.51540       -1.39560
H          2.48210       -3.89200        0.26920
H          1.21030       -3.59840       -2.45300
H          0.08890       -3.46270        0.41010
H         -0.88510       -3.70110       -1.16430
N          3.02220        0.05340       -1.98090
H          3.62850       -3.10900       -2.35860
H          3.74360       -4.55720       -1.52350
