26
TSA8_9_Me_Et_CH2F
C          1.88170       -0.10680       -0.06560
C          1.48010       -0.93580       -1.07370
C          1.94190        1.39580        0.00460
H          2.20760       -0.57090        0.86150
C          1.50100       -2.42650       -0.81530
C          2.96370        1.13450       -4.54510
C          2.48480        1.02580       -3.29740
C          1.06150        0.60570       -3.02270
O          1.03730       -0.58050       -2.31990
C          4.38440        1.54270       -4.79220
H          2.32680        0.92230       -5.39930
H          3.14530        1.23800       -2.46360
H          0.53350        0.42990       -3.98420
H          0.46950        1.38470       -2.50870
H          1.60660        1.94550       -0.87710
H          2.98920        1.70100        0.20850
H          1.30860        1.73290        0.85140
C          2.42570       -3.13310       -1.80300
H          0.47010       -2.82380       -0.93150
H          1.84390       -2.66960        0.21440
H          2.08620       -2.96280       -2.84710
H          2.41750       -4.22560       -1.60450
H          3.46520       -2.75690       -1.69180
F          4.61160        2.80340       -4.27090
H          4.58330        1.56200       -5.88410
H          5.07470        0.81540       -4.31490
