16
TSA8_9_Cl_NO2_I
C          1.80130        0.20160       -0.00640
C          1.46930        1.51950        0.05370
Cl         2.17090       -0.87380        1.33820
H          1.83260       -0.29400       -0.97070
N          1.16240        2.21090       -1.15930
C          4.11210        2.90720        3.13570
C          3.39620        2.01150        2.44870
C          1.88880        2.00780        2.47450
O          1.39140        2.25180        1.20860
I          6.22050        2.88120        3.04850
H          3.62860        3.66570        3.74360
H          3.91810        1.27400        1.84870
H          1.52190        2.81870        3.13980
H          1.48450        1.06750        2.89260
O          0.86620        3.36680       -1.12290
O          1.20720        1.59950       -2.32530
