21
TSA8_9_CN_CF3_CHF2
C          3.06620        0.96630       -1.09120
C          1.64640        0.53880       -1.58300
C          2.83650        1.23120        0.35160
H          3.79420        0.12790       -1.16800
C          1.60180       -0.84190       -2.25020
C          3.49720        2.19550       -1.96840
C          2.49960        3.31230       -1.70560
C          1.06760        2.79710       -1.84510
O          1.01880        1.50350       -2.42720
C          4.91160        2.81520       -1.99530
H          3.38170        1.84710       -3.01910
H          2.65220        3.73250       -0.68050
H          0.57750        3.51350       -2.53240
H          0.51930        2.82710       -0.87790
N          2.62530        1.47090        1.45910
F          0.28740       -1.16360       -2.53630
F          2.33080       -0.83910       -3.42560
F          2.11200       -1.80500       -1.39780
F          5.27360        3.41980       -0.80750
F          5.87120        1.89900       -2.38230
H          4.89020        3.61010       -2.78510
