16
TSA8_9_Cl_H_NH2
C          2.73550       -1.45230        1.22190
C          1.36210       -1.05440        0.75190
Cl         3.95170       -0.35360        0.49930
H          2.76260       -1.30510        2.32330
H          0.62560       -0.72010        1.47570
C          3.03980       -2.94300        0.93330
C          3.10520       -3.24020       -0.55220
C          2.26400       -4.09310       -1.14410
O          1.06410       -1.09140       -0.43170
N          4.29830       -3.33280        1.57250
H          2.22690       -3.54030        1.40690
H          3.86150       -2.74860       -1.15740
H          1.49290       -4.60680       -0.57920
H          2.34510       -4.27980       -2.21010
H          5.10620       -2.83540        1.13230
H          4.44310       -4.36260        1.45590
