24
TSA8_9_Et_OMe_F
C          2.87860       -1.28790        0.69440
C          1.89320       -1.24680        1.84090
C          2.18640       -0.80590       -0.60210
H          3.68160       -0.54950        0.91770
O          2.12730       -0.41320        2.88660
C          3.57290       -2.67990        0.62150
C          2.65320       -3.86410        0.40950
C          1.99460       -4.10010       -0.72810
O          0.89760       -1.95920        1.82310
F          4.23730       -2.87590        1.82220
H          4.34890       -2.68470       -0.17140
H          2.54450       -4.58070        1.21940
H          1.36270       -4.97880       -0.81130
H          2.08260       -3.45060       -1.58830
C          3.14920       -0.67970       -1.78510
H          1.76150        0.20520       -0.41430
H          1.33810       -1.46600       -0.87190
H          3.97410        0.02100       -1.53560
H          2.60120       -0.28190       -2.66500
H          3.57950       -1.66150       -2.06620
C          1.31280       -0.32820        3.99560
H          1.72730        0.42640        4.69500
H          1.27050       -1.31040        4.51340
H          0.28880       -0.01700        3.69710
