24
TSA8_9_Et_OMe_F
C          2.96710       -1.44060        0.69440
C          1.82350       -1.68440        1.70260
C          2.40250       -0.79780       -0.60360
H          3.69120       -0.71310        1.12440
O          1.23700       -0.47380        2.10210
C          3.69180       -2.79870        0.45860
C          2.83160       -4.00140        0.88370
C          1.35410       -3.73110        0.56770
O          0.82390       -2.55480        1.18250
F          4.85770       -2.84270        1.20500
H          3.98210       -2.91130       -0.60260
H          2.89600       -4.12840        1.98780
H          0.76820       -4.60590        0.91930
H          1.22530       -3.66000       -0.53240
C          3.49170       -0.35770       -1.58630
H          1.83750        0.11960       -0.32930
H          1.70230       -1.48470       -1.12110
H          4.17780        0.36670       -1.09870
H          3.01740        0.13960       -2.45870
H          4.08100       -1.21340       -1.96880
C          1.34910       -0.40570        3.50080
H          0.94380        0.57060        3.83740
H          2.41350       -0.44490        3.82810
H          0.74300       -1.20170        3.98940
