24
TSA8_9_CH2F_CH2F_OMe
C          1.80640        0.13020       -0.04550
C          1.43860        1.42550        0.05550
C          1.90690       -0.81070        1.12300
H          2.03240       -0.28560       -1.02330
C          1.31540        2.27820       -1.17800
C          4.18080        3.60080        1.41910
C          2.85490        3.61060        1.59260
C          2.11300        2.42550        2.14960
O          1.14970        1.98810        1.25780
O          4.79990        4.69580        0.92130
H          4.76060        2.71750        1.67910
H          2.28810        4.49940        1.32960
H          1.60740        2.74910        3.08280
H          2.80730        1.59720        2.40820
F          3.20310       -1.27870        1.22440
H          1.22460       -1.66880        0.95130
H          1.61580       -0.34070        2.08310
F          0.02010        2.74880       -1.28360
H          1.56400        1.71310       -2.10200
H          2.00860        3.14100       -1.10410
C          6.16230        4.74720        0.73330
H          6.43610        5.74100        0.32310
H          6.47950        3.96160        0.01440
H          6.68760        4.60240        1.70180
