18
TSA8_9_I_NH2_NH2
C          3.10560        1.89510        1.18230
C          1.65490        2.29530        0.98920
I          3.49140       -0.02030        0.26160
H          3.67610        2.65330        0.60210
N          1.13020        2.34470       -0.25860
C          3.64010        1.94180        2.64670
C          3.24040        0.75470        3.52010
C          1.99290        0.44200        3.88410
O          0.96150        2.62910        1.93590
N          5.10420        2.01840        2.59950
H          3.28900        2.88430        3.12180
H          4.03260        0.11200        3.89690
H          1.13090        1.01470        3.59050
H          1.82520       -0.42350        4.51810
H          0.15310        2.63910       -0.40470
H          1.69940        2.10160       -1.08250
H          5.51140        1.13770        2.20910
H          5.48270        2.16410        3.56400
