16
TSA8_9_F_NO2_H
C          3.03980        0.84880       -1.40640
C          1.65070        0.91490       -2.01370
F          2.99780        0.19300       -0.18660
H          3.64130        0.23410       -2.11080
N          0.93140       -0.22550       -2.20570
C          3.77380        2.19710       -1.23100
C          3.33920        3.01530       -0.03240
C          2.14350        3.59400        0.11410
O          1.18580        1.98640       -2.37350
H          4.83980        1.94380       -1.04090
H          3.73990        2.79600       -2.16640
H          4.06450        3.15620        0.76470
H          1.36600        3.52970       -0.62860
H          1.93570        4.16800        1.01150
O         -0.15390       -0.17740       -2.70250
O          1.42440       -1.39480       -1.85490
