20
TSA8_9_H_CCl3_Me
C          2.08850        2.30660        0.60580
C          1.04480        2.92240       -0.29830
H          1.63140        1.39810        1.05110
H          2.97340        1.98570        0.01370
C          1.25830        3.01930       -1.79540
C          2.54080        3.26110        1.73930
C          3.51180        2.56150        2.66880
C          3.16420        1.48300        3.37930
O         -0.00190        3.31540        0.19650
C          3.19690        4.53010        1.17640
H          1.65490        3.56910        2.33790
H          4.52240        2.94590        2.78320
H          2.16490        1.06400        3.31620
H          3.88540        1.01400        4.04060
Cl         2.69640        4.00210       -2.16890
Cl         1.48830        1.38820       -2.47490
Cl        -0.14410        3.76420       -2.61570
H          4.09430        4.27350        0.57280
H          3.50580        5.19950        2.00770
H          2.48100        5.09320        0.54260
