20
TSA8_9_H_CCl3_Me
C          1.81280        0.18320       -0.11800
C          1.57040        1.50600       -0.25290
H          2.09220       -0.26590        0.82490
H          1.72580       -0.50850       -0.94580
C          1.14880        2.12150       -1.57720
C          2.85250        4.60330        2.25140
C          3.26500        3.32810        2.23670
C          2.29700        2.20320        2.02130
O          1.67560        2.37460        0.79550
C          3.81950        5.72650        2.45850
H          1.80040        4.83660        2.10880
H          4.31750        3.09660        2.38080
H          1.53120        2.22210        2.82540
H          2.85990        1.25310        2.08900
Cl         2.35210        3.35010       -2.04170
Cl         0.98910        0.97660       -2.94500
Cl        -0.42350        2.93210       -1.36680
H          4.58180        5.72210        1.65090
H          4.32260        5.61750        3.44310
H          3.27780        6.69520        2.43580
