20
TSA8_9_H_CCl3_Me
C          3.06620        2.47920        0.36850
C          1.64590        1.84030        0.20210
H          3.74020        1.72050        0.82310
H          3.50620        2.76850       -0.60870
C          0.94890        2.17920       -1.13110
C          2.98350        3.67160        1.33120
C          2.42290        3.20200        2.69010
C          1.45800        2.01830        2.51300
O          0.76730        2.13720        1.28980
C          4.33100        4.37480        1.50380
H          2.26760        4.40250        0.90050
H          3.20890        2.87520        3.40620
H          0.74450        1.98730        3.36190
H          2.01310        1.05010        2.54070
Cl         0.64280        3.92800       -1.30400
Cl         1.92580        1.61930       -2.51530
Cl        -0.61540        1.32780       -1.21360
H          4.69740        4.74110        0.52130
H          5.08410        3.67730        1.92930
H          4.22080        5.24570        2.18460
