15
TSA8_9_Br_I_CN
C          2.64520        1.89030        0.98870
C          1.60760        2.34950        0.00760
Br         2.67360       -0.08550        0.99870
H          2.81860        0.79880        0.85110
I          1.91730        1.98970       -2.04710
C          2.49180        2.47680        2.43830
C          1.77310        1.49750        3.30760
C          0.45230        1.41970        3.28070
O          0.60510        2.94470        0.36620
C          3.73140        2.86620        3.12390
H          1.94180        3.44560        2.38490
H          2.35030        0.74040        3.83930
H         -0.11700        2.13470        2.70260
H         -0.04210        0.61650        3.80740
N          4.67430        3.26320        3.67630
