15
TSA8_9_Br_I_CN
C          1.64260        0.04310        0.00560
C          1.55420        1.45210        0.00510
Br         1.82910       -1.19890        1.38760
H          1.52360       -0.45220       -0.94650
I          1.65220        2.36600       -1.91820
C          2.39730        3.28420        3.79170
C          2.28490        2.18260        3.04790
C          1.00290        1.91200        2.31430
O          1.13750        2.32940        1.00200
C          3.70780        3.71690        4.18470
H          1.54180        3.92330        3.99380
H          3.16430        1.57640        2.85480
H          0.19600        2.51740        2.73790
H          0.64360        0.87240        2.42240
N          4.77540        4.04070        4.48750
