16
TSA8_9_OH_CN_F
C          1.20840       -1.41570       -0.66390
C          1.55310       -1.85900        0.78230
O          2.32280       -0.77180       -1.22370
H          0.32060       -0.73660       -0.65680
C          1.35220       -0.77900        1.75890
C          0.84150       -2.66810       -1.45430
C         -0.39600       -3.31360       -0.81360
C         -0.37550       -3.17520        0.72220
O          0.94610       -3.07940        1.20930
F          0.58970       -2.38030       -2.78470
H          1.69090       -3.38450       -1.39810
H         -1.33910       -2.83640       -1.16380
H         -0.88420       -4.05420        1.16930
H         -0.95250       -2.28020        1.05110
H          1.97910       -0.14230       -1.91040
N          1.18030        0.07070        2.52530
