24
TSA8_9_Et_OH_CBr3
C          1.86210        0.01220       -0.27270
C          1.46250        0.51210       -1.47690
C          1.87480        0.63360        1.10290
H          2.23190       -1.00960       -0.27400
O          1.57410       -0.29900       -2.55640
C          2.27010        4.60730        0.06560
C          2.15800        3.46640       -0.62770
C          0.80770        2.88620       -0.95630
O          0.94280        1.75150       -1.72960
C          3.61220        5.22190        0.37680
H          1.36910        5.11410        0.40310
H          3.05240        2.95220       -0.97070
H          0.26060        3.63980       -1.56100
H          0.17610        2.68710       -0.06900
C          3.29790        0.60540        1.64740
H          1.22430        0.03020        1.77300
H          1.52000        1.66540        1.15770
H          3.67120       -0.44010        1.69850
H          3.32500        1.04280        2.66730
H          3.96610        1.19130        0.98210
H          1.94880       -1.19080       -2.51570
Br         3.37460        6.86030        1.38250
Br         4.70130        4.02000        1.43720
Br         4.55380        5.64950       -1.26540
