24
TSA8_9_Et_OH_CBr3
C          2.31850        1.66530       -0.07310
C          1.00450        1.18840       -0.76180
C          2.53190        0.87240        1.24930
H          3.14010        1.40060       -0.77690
O          0.98710       -0.19960       -0.92580
C          2.18940        3.23240        0.08910
C          1.87050        3.82080       -1.29950
C          0.62060        3.15550       -1.86950
O          0.85550        1.77900       -2.03490
C          3.36110        4.03720        0.73130
H          1.29950        3.44000        0.72560
H          2.72500        3.67390       -1.99600
H          0.40620        3.60010       -2.86340
H         -0.27300        3.34130       -1.23040
C          4.00800        0.66080        1.61100
H          2.16770       -0.16940        1.13320
H          1.93930        1.32230        2.07360
H          4.51210        0.09110        0.80100
H          4.07560        0.06580        2.54610
H          4.57530        1.58840        1.75510
H          0.16600       -0.49630       -0.45790
Br         3.04390        5.95470        0.56750
Br         3.47560        3.79090        2.65910
Br         5.07160        3.67270       -0.12040
