15
TSA8_9_F_H_OH
C          0.97210        0.35030        1.87290
C          1.86350        1.38310        1.24770
F          1.77370       -0.55990        2.54110
H          0.42930       -0.19210        1.06820
H          1.86770        1.51360        0.17050
C         -0.05980        0.93750        2.86080
C         -1.07250        1.85060        2.19630
C         -0.75760        3.02870        1.64720
O          2.59570        2.07180        1.94080
O         -0.74810       -0.13850        3.44510
H          0.48540        1.49590        3.65830
H         -2.11590        1.54700        2.18420
H          0.25630        3.40860        1.64740
H         -1.53490        3.63840        1.19810
H         -1.14110        0.19540        4.29420
