15
TSA8_9_OH_F_F
C          1.68210       -1.99490        0.22870
C          1.25300       -0.77480        1.00760
O          1.37630       -1.83820       -1.13450
H          2.78980       -2.03980        0.31270
F          2.18360       -0.04190        1.67320
C          1.17620       -3.36060        0.76480
C         -0.32040       -3.56800        0.72980
C         -1.16200       -2.94840        1.56230
O          0.09270       -0.39740        1.00040
F          1.75730       -4.34830       -0.01340
H          1.53050       -3.51400        1.80740
H         -0.73050       -4.28680        0.02600
H         -0.80570       -2.25740        2.31760
H         -2.22630       -3.15190        1.50630
H          0.38790       -1.81080       -1.22130
