15
TSA8_9_OH_F_F
C          1.97190       -0.06850        0.04230
C          1.24530       -0.77500        0.91800
O          2.19660       -0.49940       -1.22040
H          2.39530        0.88200        0.35060
F          1.05530       -0.28020        2.17240
C         -0.21390       -5.18250        1.15890
C         -0.51800       -3.96280        0.70530
C         -0.07500       -2.71650        1.41440
O          0.70330       -1.96500        0.56220
F         -0.63660       -6.28290        0.48380
H          0.36940       -5.31360        2.06520
H         -1.10370       -3.86470       -0.20430
H          0.50710       -2.96360        2.33070
H         -0.97630       -2.13630        1.70900
H          1.84690       -1.33440       -1.56230
