19
TSA8_9_CHF2_Br_NO2
C          1.69580       -1.72980        1.25110
C          1.11120       -0.33560        1.34370
C          1.71840       -2.17190       -0.23070
H          2.75840       -1.65900        1.57300
Br         2.18630        1.11840        1.96530
C          0.98150       -2.68260        2.26850
C         -0.51110       -2.81640        2.03460
C         -1.40670       -2.40150        2.93760
O         -0.04400       -0.11570        1.01320
N          1.58340       -4.00560        2.31130
H          1.14110       -2.21080        3.26670
H         -0.87300       -3.26520        1.11590
H         -1.09510       -1.94840        3.87400
H         -2.46790       -2.51330        2.74120
F          2.45220       -3.32870       -0.40620
F          0.44450       -2.34650       -0.73870
H          2.22520       -1.38520       -0.83060
O          1.45260       -4.76940        1.40320
O          2.18080       -4.41360        3.41050
