19
TSA8_9_CHF2_Br_NO2
C          1.60680       -2.05270        1.25080
C          1.15390       -0.61750        1.59530
C          1.48030       -2.25190       -0.27630
H          2.68690       -2.15410        1.49490
Br         1.79930        0.05500        3.31130
C          0.78150       -3.03100        2.13860
C         -0.71870       -2.75190        1.98360
C         -0.98440       -1.27060        2.27430
O         -0.24160       -0.42570        1.40880
N          1.07410       -4.43500        1.90310
H          1.04820       -2.80260        3.19560
H         -1.06300       -2.99700        0.95650
H         -0.77840       -1.03420        3.34080
H         -2.06550       -1.07460        2.11840
F          2.18290       -1.25330       -0.92930
F          2.02540       -3.45930       -0.66800
H          0.42340       -2.19890       -0.60780
O          0.74560       -4.96910        0.88740
O          1.59950       -5.15980        2.86800
