19
TSA8_9_F_NO2_CF3
C          2.08540        0.24100        0.30580
C          1.41410        0.56140        1.43650
F          2.73200       -0.94030        0.13450
H          2.11840        0.93500       -0.52770
N          0.74660        1.82030        1.52770
C          3.86340       -0.18200        3.99020
C          3.51790       -1.04590        3.02150
C          2.07470       -1.40680        2.79720
O          1.33220       -0.27230        2.51860
C          5.28290        0.23100        4.26490
H          3.08700        0.25220        4.61550
H          4.27120       -1.49650        2.38180
H          1.68050       -1.86590        3.72820
H          1.96170       -2.16000        1.99010
O          0.16610        2.11150        2.52900
O          0.77710        2.68170        0.53160
F          6.17690       -0.38120        3.40300
F          5.38840        1.60140        4.11890
F          5.60890       -0.10950        5.56410
