20
TSA8_9_CHF2_CCl3_F
C          1.73050       -0.05870        0.11090
C          1.44940       -1.01020        1.04660
C          1.86110       -0.23200       -1.38460
H          1.85620        0.97050        0.41880
C          1.24240       -0.65320        2.51440
C          3.69980       -5.05700        0.65510
C          2.76440       -4.18550        1.04040
C          2.29230       -3.10360        0.11580
O          1.33210       -2.33660        0.75430
F          4.11940       -6.02720        1.50870
H          4.13590       -5.00010       -0.33770
H          2.34650       -4.26250        2.04030
H          1.84980       -3.57680       -0.78560
H          3.17060       -2.48400       -0.17500
F          3.15790        0.04460       -1.77400
F          1.48750       -1.47270       -1.84940
H          1.18010        0.49920       -1.86820
Cl         2.43790       -1.53260        3.50030
Cl         1.38600        1.08360        2.92960
Cl        -0.38570       -1.18140        3.00640
