20
TSA8_9_CF3_Me_F
C          1.92560       -0.08580       -0.02970
C          1.24810       -1.18950       -0.41470
C          2.12260        1.15570       -0.86730
H          2.37250       -0.06070        0.96050
C          1.12900       -2.35700        0.53960
C         -0.21730       -2.77680       -4.55230
C         -0.52390       -1.97350       -3.52860
C         -0.09810       -2.28060       -2.12280
O          0.68000       -1.24360       -1.65030
F         -0.62330       -2.46060       -5.80940
H          0.35450       -3.68690       -4.39800
H         -1.09860       -1.07090       -3.71510
H          0.47730       -3.23180       -2.08470
H         -1.00780       -2.38290       -1.49300
F          3.47720        1.37060       -1.03570
F          1.53150        1.06900       -2.11480
F          1.57920        2.23560       -0.19750
H          1.58860       -3.25830        0.08390
H          0.05890       -2.56030        0.75120
H          1.63970       -2.16450        1.50740
