24
TSA8_9_CH2F_OMe_CCl3
C          1.95770        0.00060       -0.01130
C          1.85870       -1.06580        0.82510
C          1.80820        0.10420       -1.50550
H          2.17390        0.95630        0.46060
O          2.03750       -0.79660        2.14320
C          3.72770       -4.22770       -1.37890
C          3.04300       -3.07980       -1.24390
C          1.63350       -3.05510       -0.71060
O          1.59740       -2.36840        0.48390
C          5.14900       -4.25240       -1.87790
H          3.25230       -5.16770       -1.11070
H          3.52160       -2.14110       -1.50460
H          1.29520       -4.09240       -0.50160
H          0.89670       -2.65860       -1.43080
F          2.97700        0.61300       -2.03870
H          0.98350        0.81480       -1.72260
H          1.57530       -0.82030       -2.03580
C          2.05200       -1.76340        3.12550
H          2.22040       -1.28160        4.11020
H          2.87670       -2.48480        2.93650
H          1.08120       -2.30290        3.14900
Cl         5.74740       -5.93030       -1.92040
Cl         5.24760       -3.57480       -3.52360
Cl         6.20160       -3.31000       -0.78840
