24
TSA8_9_CH2F_OMe_CCl3
C          3.15040       -1.70090       -0.09900
C          1.89800       -2.01720        0.74390
C          2.91410       -0.43330       -0.94840
H          3.98370       -1.48140        0.60380
O          1.58240       -0.97510        1.62890
C          3.47290       -3.01730       -0.88190
C          2.21890       -3.49970       -1.64220
C          1.02720       -3.57470       -0.67510
O          0.79150       -2.31470       -0.08080
C          4.73710       -3.03370       -1.78780
H          3.67380       -3.77530       -0.08920
H          1.97120       -2.80410       -2.47150
H          1.18820       -4.35870        0.10130
H          0.12480       -3.87410       -1.24810
F          4.08520       -0.00270       -1.53910
H          2.57870        0.39610       -0.29110
H          2.13180       -0.59240       -1.71900
C          1.78070       -1.47160        2.92880
H          1.59830       -0.64840        3.65010
H          2.83180       -1.80690        3.08180
H          1.05680       -2.28440        3.16120
Cl         5.07800       -4.71600       -2.28430
Cl         4.56890       -2.09070       -3.29790
Cl         6.16980       -2.45440       -0.89520
