17
TSA8_9_I_CBr3_I
C          2.06820       -1.89560       -0.83840
C          0.81570       -2.38860       -0.14450
I          1.88310        0.23730       -1.06970
H          2.95100       -2.08440       -0.19000
C          0.85360       -2.91880        1.27860
C          2.28070       -2.55630       -2.22060
C          3.56590       -2.07220       -2.84240
C          3.59130       -1.41700       -4.00670
O         -0.25330       -2.30810       -0.73280
I          2.40180       -4.69520       -2.13620
H          1.41290       -2.31070       -2.87220
H          4.50230       -2.26460       -2.32640
H          2.67770       -1.20520       -4.55370
H          4.53820       -1.08630       -4.42050
Br         1.48830       -1.53240        2.47590
Br        -0.90930       -3.46080        1.89550
Br         2.02690       -4.45020        1.45810
