17
TSA8_9_I_Cl_Me
C          1.88460       -1.00290       -2.08220
C          0.63560       -1.83890       -1.98370
I          1.59960        0.74970       -0.86640
H          2.73820       -1.57090       -1.65130
Cl         0.70550       -3.45820       -1.30740
C          2.21090       -0.63010       -3.54910
C          3.45820        0.22280       -3.60560
C          3.44590        1.46330       -4.10400
O         -0.43530       -1.40050       -2.37350
C          2.43980       -1.88110       -4.41050
H          1.34780       -0.06940       -3.97440
H          4.39370       -0.18400       -3.23130
H          2.53220        1.90650       -4.48820
H          4.36050        2.04630       -4.12880
H          1.53260       -2.52080       -4.42840
H          3.28980       -2.47940       -4.01620
H          2.66630       -1.58580       -5.45760
