17
TSA8_9_I_Cl_Me
C          2.20800       -1.18620       -2.16460
C          1.03080       -0.26450       -1.72460
I          4.04420       -0.57000       -1.21080
H          2.04010       -2.21630       -1.78130
Cl        -0.44790       -1.24480       -1.52950
C          2.28060       -1.17580       -3.69970
C          2.50860        0.26170       -4.20580
C          1.87370        1.29700       -3.26000
O          0.71340        0.77700       -2.65170
C          3.31640       -2.14730       -4.27310
H          1.28130       -1.50250       -4.06500
H          3.58230        0.53030       -4.31400
H          1.62750        2.21230       -3.83650
H          2.58810        1.62360       -2.47280
H          3.09730       -3.18050       -3.92990
H          4.34290       -1.87300       -3.95220
H          3.27640       -2.12990       -5.38270
