23
TSA8_9_Et_CCl3_H
C          1.83770        1.07370        1.45020
C          2.41510       -0.38070        1.56150
C          1.86600        1.51480       -0.03180
H          0.77630        1.09740        1.78230
C          1.41170       -1.42610        2.07940
C          2.64450        1.99790        2.38180
C          4.15000        1.90890        2.08660
C          4.54870        0.46220        1.75090
O          3.62370       -0.44290        2.31430
H          2.48130        1.62530        3.41820
H          2.29940        3.05140        2.36900
H          4.68190        2.28440        2.98750
H          5.57400        0.25290        2.12100
H          4.60130        0.32430        0.64640
C          1.23350        2.88760       -0.26380
H          1.28840        0.77570       -0.62890
H          2.90490        1.52970       -0.42180
H          0.18120        2.89190        0.09120
H          1.24210        3.11730       -1.35010
H          1.80220        3.68510        0.25540
Cl         0.92230       -1.06700        3.75790
Cl        -0.04060       -1.48470        1.04460
Cl         2.16310       -3.04180        2.04310
