21
TSA8_9_OH_CF3_CCl3
C          2.92560        2.37000       -0.21920
C          1.51300        1.70950       -0.04100
O          3.90400        1.53760        0.34680
H          3.16000        2.50350       -1.29950
C          0.61550        1.91460       -1.26680
C          2.92160        3.73940        0.50190
C          2.59230        3.52830        1.99980
C          1.68400        2.30610        2.20920
O          0.80570        2.15930        1.11710
C          4.19280        4.60690        0.29210
H          2.07420        4.31300        0.06680
H          3.48680        3.38180        2.64240
H          1.11150        2.42890        3.15140
H          2.28500        1.37560        2.33580
H          3.97320        0.74010       -0.24060
F         -0.58980        1.26750       -1.06520
F          0.37270        3.26030       -1.47680
F          1.21820        1.37840       -2.39050
Cl         3.99630        6.18510        1.10490
Cl         5.67440        3.83990        0.93380
Cl         4.44780        4.94090       -1.44310
