18
TSA8_9_Br_OMe_I
C          3.33340       -0.56630        0.98410
C          2.24980       -0.06740        1.90600
Br         2.62300       -0.68730       -0.82700
H          4.12340        0.21570        0.97730
O          2.44160        1.10410        2.56570
C          4.03030       -1.88080        1.42860
C          3.18450       -3.13420        1.35500
C          2.19160       -3.40500        2.20650
O          1.19540       -0.67560        2.01530
I          5.77050       -2.18210        0.19660
H          4.43110       -1.76920        2.45970
H          3.41690       -3.87950        0.60000
H          1.93560       -2.73330        3.01560
H          1.63730       -4.33320        2.10940
C          1.52130        1.66450        3.42550
H          1.92570        2.62070        3.81670
H          1.33070        0.98000        4.27940
H          0.57090        1.87110        2.88850
