14
TSA8_9_Br_Br_I
C          1.92350       -0.31630        1.95440
C          0.71850        0.37400        2.53370
Br         1.47170       -0.92320        0.16000
H          2.75760        0.41370        1.86720
Br         0.79810        2.22360        3.01380
C          2.37330       -1.49330        2.84220
C          3.56650       -2.19320        2.24360
C          3.52870       -3.48570        1.90390
O         -0.32650       -0.23820        2.69790
I          2.93970       -0.81370        4.79850
H          1.52630       -2.20550        2.95940
H          4.48290       -1.63240        2.08320
H          2.63090       -4.07910        2.04860
H          4.40470       -3.96030        1.47450
