14
TSA8_9_Br_Br_I
C          2.54760       -0.16420        1.95500
C          1.11820       -0.66180        1.58630
Br         3.76370       -0.39430        0.44520
H          2.52850        0.93020        2.14470
Br        -0.20110        0.46870        2.45290
C          3.01640       -0.92520        3.19910
C          3.02720       -2.43840        2.93170
C          1.96540       -2.83180        1.88900
O          0.82930       -2.00300        1.99040
I          4.90400       -0.25490        3.96380
H          2.26780       -0.73030        3.99770
H          4.00690       -2.80740        2.55910
H          1.68100       -3.89300        2.04330
H          2.36950       -2.77900        0.85420
