23
TSA8_9_Et_F_CH2F
C          2.78150        0.15880       -1.75990
C          1.66650       -0.70240       -2.31570
C          2.30620        0.80950       -0.43680
H          3.62030       -0.52740       -1.50710
F          1.85430       -2.04190       -2.44170
C          3.31990        1.19160       -2.80310
C          2.27710        2.22100       -3.19210
C          2.44340        3.52460       -2.94830
O          0.59160       -0.21830       -2.63350
C          3.84150        0.49920       -4.07260
H          4.19490        1.70700       -2.35200
H          1.36790        1.90290       -3.69120
H          1.67640        4.23270       -3.24500
H          3.33590        3.89670       -2.45540
C          3.41370        1.55360        0.31130
H          1.93880        0.00450        0.23790
H          1.46210        1.50730       -0.62770
H          4.25770        0.86580        0.53170
H          3.01230        1.93980        1.27180
H          3.78500        2.42050       -0.27050
F          4.84820       -0.39590       -3.75540
H          4.25730        1.25760       -4.77060
H          3.02580       -0.04360       -4.59600
