23
TSA8_9_Et_F_CH2F
C          2.57100        0.47200       -1.74110
C          1.13010        0.06570       -2.11060
C          2.55300        1.09940       -0.32370
H          3.18530       -0.45250       -1.65770
F          1.08380       -0.72700       -3.24520
C          3.15170        1.42960       -2.83640
C          2.04330        1.99740       -3.74410
C          0.79440        2.30320       -2.90820
O          0.23990        1.17160       -2.23360
C          4.22730        0.74300       -3.69240
H          3.64430        2.29310       -2.34660
H          1.74240        1.26210       -4.52150
H          0.02360        2.71190       -3.59450
H          1.03410        3.09240       -2.16530
C          3.95330        1.34280        0.24740
H          2.04540        0.39000        0.36710
H          1.98210        2.05070       -0.31410
H          4.52180        0.38960        0.28720
H          3.86280        1.74160        1.27980
H          4.52600        2.07890       -0.35010
F          3.70790       -0.35280       -4.36060
H          5.06290        0.40250       -3.04440
H          4.63690        1.45950       -4.43630
