23
TSA8_9_NH2_CHF2_OMe
C          2.75790       -0.37450        1.01540
C          1.44810        0.38510        1.03760
N          2.83990       -1.14330       -0.22960
H          3.57960        0.37310        1.02270
C          1.44460        1.88850        1.06500
C          2.89240       -1.30870        2.25670
C          2.72760       -0.55350        3.56600
C          1.73270       -0.82400        4.41780
O          0.38880       -0.22560        1.02610
O          4.07930       -2.09860        2.24860
H          2.05640       -2.04010        2.18250
H          3.42280        0.23730        3.82640
H          1.64210       -0.26180        5.34140
H          1.00490       -1.60170        4.20750
H          2.09680       -1.88010       -0.25210
H          3.77100       -1.61190       -0.30410
F          0.14950        2.37640        1.07260
F          2.10200        2.33770        2.19530
H          1.96670        2.27300        0.16370
C          5.27350       -1.33840        2.25530
H          6.12050       -2.03820        2.40560
H          5.32680       -0.62220        3.09900
H          5.45150       -0.84300        1.27930
