23
TSA8_9_NH2_CHF2_OMe
C          2.85200       -0.28130        1.18090
C          1.50150        0.34340        1.60520
N          2.80150       -0.71430       -0.21790
H          3.63670        0.49700        1.28840
C          1.09870        1.53260        0.72950
C          3.13770       -1.48390        2.11820
C          2.98680       -1.07690        3.59940
C          1.62780       -0.39060        3.77830
O          1.55720        0.75720        2.95720
O          4.35540       -2.15270        1.80810
H          2.33080       -2.23030        1.94220
H          3.77500       -0.35410        3.90020
H          1.52590       -0.07530        4.83830
H          0.78520       -1.08980        3.57060
H          2.07280       -1.45540       -0.33930
H          3.72960       -1.10370       -0.50050
F         -0.13260        2.01040        1.13760
F          2.03500        2.54650        0.83230
H          1.01730        1.21890       -0.33190
C          5.50800       -1.47580        2.26960
H          5.73200       -1.77340        3.31600
H          5.44330       -0.37170        2.18260
H          6.36550       -1.77910        1.63530
