19
TSA8_9_NO2_CH2F_F
C          2.16740       -0.09680       -0.22320
C          1.75600       -1.40630       -0.23780
N          1.92200        0.96530       -1.15000
H          2.77540        0.19710        0.63030
C          2.16940       -2.27320        0.92640
C          1.48590       -1.37920       -4.69330
C          1.70420       -1.59720       -3.39430
C          0.55890       -1.81280       -2.44310
O          1.01580       -2.08330       -1.17140
F          2.53360       -1.18960       -5.53680
H          0.47510       -1.35210       -5.08910
H          2.72530       -1.62050       -3.02390
H         -0.00430       -2.70480       -2.78980
H         -0.17550       -0.98660       -2.43330
O          2.42060        2.02850       -0.93690
O          1.10490        0.85850       -2.16560
F          1.04080       -2.76650        1.55480
H          2.78220       -1.73670        1.68240
H          2.77150       -3.12490        0.54680
