20
TSA8_9_Br_Me_CCl3
C          2.28500        0.70320        2.11600
C          1.15590        1.70210        2.10360
Br         1.69140       -0.82370        1.05510
H          3.16610        1.13450        1.59350
C          1.34020        3.05010        1.47310
C          2.70780        0.25430        3.55020
C          3.76820       -0.82540        3.41840
C          3.57500       -2.06880        3.87160
O          0.07650        1.40820        2.59650
C          3.25990        1.39920        4.46110
H          1.81330       -0.17530        4.05560
H          4.71440       -0.58600        2.94130
H          2.64540       -2.35370        4.35440
H          4.35560       -2.81420        3.75910
H          2.15980        3.59620        1.98430
H          0.40750        3.64910        1.55070
H          1.59790        2.92690        0.40070
Cl         3.78090        0.73580        6.03850
Cl         4.66570        2.22430        3.72480
Cl         2.03150        2.63430        4.85110
