23
TSA8_9_CCl3_CBr3_CF3
C          1.60580       -2.01070        0.86090
C          2.87900       -1.71770        1.66470
C          1.92090       -2.07290       -0.67560
H          0.94990       -1.13340        0.96670
C          3.07960       -0.48330        2.53070
C          0.77400       -3.19000        1.51850
C         -0.65680       -3.24210        1.00510
C         -1.51140       -2.22120        1.14170
O          3.80840       -2.50800        1.61010
C          1.37050       -4.62120        1.45320
H          0.69450       -2.94610        2.60300
H         -1.02380       -4.14380        0.52060
H         -1.22030       -1.29790        1.63050
H         -2.52510       -2.31170        0.76430
Cl         3.10750       -3.32680       -1.13800
Cl         0.45980       -2.30500       -1.67270
Cl         2.61860       -0.51070       -1.19380
Br         4.62110        0.50080        1.88740
Br         1.59160        0.76980        2.62050
Br         3.44130       -1.05590        4.34680
F          2.63660       -4.68190        1.99600
F          0.56960       -5.47450        2.19420
F          1.40050       -5.09810        0.15760
