14
TSA8_9_Br_Cl_F
C          2.14440        1.80060       -0.21800
C          0.77090        1.61310        0.49300
Br         3.45390        0.50560        0.42480
H          2.04380        1.58520       -1.30370
Cl        -0.54100        1.99960       -0.65350
C          2.61390        3.23760        0.00970
C          2.73890        3.53570        1.51160
C          1.77160        2.67140        2.34070
O          0.56940        2.44470        1.63940
F          3.80850        3.49690       -0.63920
H          1.83390        3.91010       -0.40870
H          3.76350        3.35550        1.90290
H          1.56240        3.18330        3.30260
H          2.22750        1.69550        2.61640
