14
TSA8_9_F_Cl_Cl
C          1.96880        0.05150       -0.28800
C          1.37270        0.64770       -1.33840
F          2.59430        0.73920        0.69930
H          1.93590       -1.02970       -0.20540
Cl         0.56530       -0.36870       -2.52140
C          4.12720        3.80240       -2.22350
C          3.54550        2.83980       -1.50120
C          2.13550        2.97610       -0.98670
O          1.33570        1.99690       -1.54370
Cl         5.76350        3.59480       -2.82910
H          3.59700        4.71760       -2.46670
H          4.09800        1.92950       -1.28100
H          1.71920        3.96420       -1.28390
H          2.10320        2.94410        0.12110
