14
TSA8_9_F_Cl_Cl
C          2.85950        0.90080       -1.23780
C          1.31440        1.08150       -1.27360
F          3.30290        0.86770        0.07480
H          3.14140       -0.06730       -1.70530
Cl         0.67210        0.38170       -2.78500
C          3.49250        2.08620       -1.96560
C          3.10060        3.40130       -1.26890
C          1.76530        3.26430       -0.51300
O          0.86530        2.43870       -1.21970
Cl         5.26680        1.93240       -2.07940
H          3.08410        2.10310       -2.99930
H          3.85560        3.73750       -0.52480
H          1.32510        4.27200       -0.36700
H          1.92090        2.84870        0.50840
