19
TSA8_9_NO2_H_CHF2
C          1.68760       -0.27780        2.42370
C          1.55900        0.84610        1.42250
N          1.60350       -1.55320        1.71730
H          2.70400       -0.20150        2.87120
H          2.38580        1.53310        1.27470
C          0.67430       -0.07680        3.60060
C         -0.77870       -0.13940        3.16520
C         -1.58760        0.92150        3.25950
O          0.54180        0.98440        0.76090
C          0.92760       -1.02560        4.79130
H          0.88430        0.94330        3.99880
H         -1.19060       -1.06090        2.77020
H         -1.23080        1.86990        3.64950
H         -2.62220        0.84480        2.94200
O          2.40460       -1.80150        0.86690
O          0.65720       -2.43080        1.96690
F          0.11950       -0.66290        5.85500
F          0.67430       -2.34770        4.48380
H          1.98460       -0.93560        5.12020
