19
TSA8_9_NO2_H_CHF2
C          1.98460       -0.01320        0.14570
C          1.27170        0.64370        1.07470
N          2.24210       -1.41450        0.19300
H          2.37980        0.56060       -0.68900
H          1.11970        1.71340        0.95000
C         -0.19090       -0.08930        5.42740
C         -0.47480       -0.30110        4.13350
C         -0.05510        0.66400        3.06320
O          0.74070        0.01150        2.14800
C         -0.61800       -1.05800        6.48930
H          0.35650        0.79970        5.72860
H         -1.02690       -1.19020        3.83920
H          0.50110        1.52490        3.49680
H         -0.96620        1.04840        2.55550
O          2.87960       -1.92110       -0.67860
O          1.78070       -2.16570        1.17070
F         -1.99550       -1.18240        6.49030
F         -0.04300       -2.29470        6.25950
H         -0.28970       -0.68760        7.48270
