20
TSA8_9_OH_OMe_CN
C          1.57390       -0.00870        0.04400
C          1.42690       -0.31860        1.45950
O          1.63240       -0.87230       -0.97900
H          1.47330        1.02960       -0.24630
O          1.58340        0.76080        2.31230
C          2.46190       -4.33060        2.02550
C          1.91430       -3.60950        1.04310
C          0.81820       -2.66560        1.41950
O          1.42480       -1.59640        2.05990
C          3.78640       -4.86510        1.86010
H          1.96780       -4.40430        2.99120
H          2.44400       -3.49180        0.10100
H          0.14360       -3.12470        2.15330
H          0.15220       -2.36570        0.58250
H          0.98580       -1.57350       -1.16530
C          2.12960        0.43830        3.56140
H          2.43610        1.36070        4.07560
H          3.05290       -0.20520        3.49770
H          1.36610       -0.08970        4.17180
N          4.85170       -5.28370        1.69490
