24
TSA8_9_OMe_Et_I
C          1.52290       -0.09590        0.02510
C          1.38360       -1.28800       -0.60190
O          1.50270        1.08210       -0.64190
H          1.63930       -0.08150        1.10650
C          1.38760       -2.55570        0.21820
C          3.59270       -0.44040       -4.18800
C          2.88710       -0.17250       -3.08410
C          1.42470       -0.52180       -2.97110
O          1.22760       -1.43720       -1.95320
I          5.64230        0.05120       -4.29350
H          3.13190       -0.91870       -5.04700
H          3.38580        0.30220       -2.24580
H          1.07460       -0.98890       -3.91640
H          0.80350        0.38410       -2.81960
C          1.59530        2.31280       -0.02630
H          2.48460        2.85000       -0.41520
H          1.68500        2.22510        1.07890
H          0.68700        2.90540       -0.26110
C          0.06990       -3.30870        0.06300
H          1.54450       -2.34630        1.29910
H          2.22200       -3.20120       -0.12970
H         -0.77340       -2.68450        0.42730
H          0.10430       -4.24380        0.66050
H         -0.10520       -3.57520       -1.00110
