21
TSA8_9_OH_CBr3_CCl3
C          3.05490        1.45740        0.03320
C          1.57360        1.60420       -0.46500
O          3.09280        0.51600        1.07310
H          3.71900        1.11260       -0.78950
C          1.39860        1.48360       -1.99020
C          3.55330        2.83080        0.54930
C          2.60590        3.34390        1.65940
C          1.15600        2.91090        1.39570
O          0.93780        2.79090        0.00800
C          5.04610        2.88350        0.97420
H          3.44520        3.53390       -0.30520
H          2.87510        3.00510        2.68260
H          0.45910        3.65220        1.83730
H          0.93430        1.94150        1.90300
H          2.95790       -0.37450        0.65540
Br        -0.48570        1.59250       -2.43580
Br         2.33080        2.89410       -2.94440
Br         2.03160       -0.23870       -2.62580
Cl         5.49030        4.55020        1.43740
Cl         5.41540        1.81410        2.35810
Cl         6.10640        2.41920       -0.38560
