23
TSA8_9_CHF2_Et_Br
C          1.80740       -0.13950        0.09780
C          1.36560       -1.35940        0.48630
C          1.94080        0.35570       -1.32200
H          2.08080        0.58230        0.86240
C          1.21970       -1.67010        1.95970
C          4.12970       -3.84380       -0.40160
C          3.31850       -2.90130       -0.89100
C          1.84700       -3.15680       -1.13160
O          1.00250       -2.32280       -0.40520
Br         5.98270       -3.46830       -0.12110
H          3.75540       -4.83240       -0.15480
H          3.72900       -1.92640       -1.12930
H          1.59050       -4.20700       -0.87510
H          1.64130       -3.02590       -2.21350
F          3.26050        0.68110       -1.57200
F          1.50980       -0.55390       -2.26580
H          1.32260        1.27070       -1.43050
C          2.08220       -2.85750        2.37150
H          0.15440       -1.90570        2.16910
H          1.50560       -0.79780        2.58800
H          1.79220       -3.76630        1.80300
H          1.93960       -3.06060        3.45380
H          3.15460       -2.63370        2.18960
