23
TSA8_9_CHF2_Et_Br
C          2.80650       -1.01260        0.05030
C          1.39150       -1.54270        0.36750
C          2.67440        0.12050       -0.99810
H          3.24010       -0.53740        0.95740
C          1.02520       -1.92380        1.81840
C          3.69830       -2.21040       -0.36700
C          3.03020       -3.02160       -1.47170
C          1.62920       -3.44360       -1.00810
O          0.81070       -2.33860       -0.66020
Br         5.51030       -1.72040       -0.86730
H          3.81300       -2.89160        0.49850
H          2.97240       -2.44570       -2.41620
H          1.68890       -4.17040       -0.17900
H          1.14550       -3.98440       -1.84770
F          3.90020        0.69140       -1.28310
F          2.08250       -0.30260       -2.17350
H          2.03100        0.92070       -0.57200
C          1.86400       -3.01860        2.47620
H         -0.04760       -2.21200        1.84760
H          1.14150       -1.00890        2.43800
H          1.77290       -3.98660        1.95350
H          1.50330       -3.17120        3.51500
H          2.92720       -2.71210        2.53700
