22
TSA8_9_Et_NH2_Br
C          2.57340       -0.47050        1.22850
C          1.15970       -0.25280        1.87800
C          2.39950       -1.02370       -0.21680
H          3.07530        0.51660        1.11590
N          1.13020        1.03010        2.57530
C          3.38290       -1.33180        2.21890
C          2.70450       -2.68790        2.43480
C          1.17140       -2.55030        2.39540
O          0.77060       -1.26530        2.81500
Br         5.28670       -1.51350        1.87490
H          3.34550       -0.79430        3.19320
H          3.00470       -3.45300        1.68730
H          0.72870       -3.32280        3.05650
H          0.74770       -2.76020        1.39180
C          3.69220       -1.15790       -1.01750
H          1.75490       -0.30400       -0.76780
H          1.89130       -2.00390       -0.23960
H          4.23810       -0.19120       -1.04330
H          3.44650       -1.45450       -2.05910
H          4.33740       -1.95440       -0.60350
H          0.18010        1.15890        2.99170
H          1.26510        1.79710        1.87870
