23
TSA8_9_CH2F_H_Et
C          1.73820        0.12190        0.04260
C          1.34230        1.14630        0.83660
C          2.03750       -1.31440        0.37740
H          1.84890        0.35940       -1.01220
H          1.16720        2.08920        0.32780
C          3.52010        0.42880        4.49360
C          2.89810        0.10610        3.34380
C          1.40480        0.25820        3.18230
O          1.11750        1.16700        2.18460
C          5.01120        0.31850        4.73680
H          2.92860        0.80190        5.32500
H          3.46530       -0.26480        2.50130
H          0.96500        0.65070        4.12380
H          0.89090       -0.70380        3.00130
F          3.34090       -1.59850        0.01560
H          1.35720       -1.95900       -0.21680
H          1.90680       -1.60070        1.42450
C          5.83590       -0.19990        3.55700
H          5.17110       -0.36050        5.60120
H          5.38980        1.32650        5.00950
H          5.51320       -1.22560        3.27840
H          6.90810       -0.23640        3.84360
H          5.73130        0.47790        2.68300
