23
TSA8_9_CH2F_H_Et
C          2.70130        0.66730        1.54340
C          1.18450        1.04460        1.50120
C          2.91320       -0.67300        0.81420
H          3.23930        1.42970        0.93540
H          1.11680        2.12820        1.26330
C          3.16110        0.74590        3.02730
C          2.30910       -0.18900        3.91250
C          0.87510       -0.31020        3.37480
O          0.48600        0.88170        2.73570
C          4.67600        0.70330        3.36580
H          2.86840        1.78240        3.31560
H          2.70340       -1.22050        4.00750
H          0.18990       -0.53350        4.21800
H          0.76380       -1.16380        2.67060
F          4.23930       -0.86390        0.49410
H          2.37490       -0.63890       -0.15750
H          2.53140       -1.54140        1.38500
C          5.38500       -0.65620        3.34930
H          4.78360        1.07820        4.40820
H          5.21490        1.41310        2.70170
H          4.92230       -1.36290        4.06550
H          6.43900       -0.50850        3.66760
H          5.41940       -1.12130        2.35710
