20
TSA8_9_CHF2_F_Me
C          1.46250        1.00140        2.40530
C          1.09830        1.57360        1.01960
C          1.45010       -0.54240        2.32700
H          2.50340        1.30360        2.65500
F          1.38450        2.92910        0.91860
C          0.48730        1.62990        3.44270
C         -0.96360        1.41160        2.99930
C         -1.13280        1.95060        1.57440
O         -0.25070        1.30190        0.67070
C          0.69470        1.15750        4.88470
H          0.67180        2.72800        3.44360
H         -1.22970        0.33400        3.02880
H         -0.99040        3.05440        1.54790
H         -2.17760        1.76190        1.24940
F          2.32600       -0.95820        1.33900
F          1.86610       -1.10400        3.51880
H          0.44200       -0.92850        2.07610
H          0.45790        0.08090        5.00320
H          0.01890        1.72270        5.56240
H          1.74300        1.34610        5.20150
