15
TSA8_9_F_H_CN
C          2.34300        1.68510        1.19530
C          1.57780        2.56560        0.25270
F          1.74620        0.44330        1.05740
H          3.39740        1.54410        0.86630
H          1.86740        2.58030       -0.79410
C          2.27010        2.16640        2.67140
C          2.06940        0.96660        3.55260
C          0.82400        0.57760        3.83000
O          0.44140        2.92220        0.53020
C          3.43740        2.93010        3.16620
H          1.39010        2.83940        2.81350
H          2.91230        0.35210        3.84440
H         -0.02550        1.15740        3.46900
H          0.64370       -0.33500        4.37430
N          4.35870        3.48630        3.60080
