16
TSA8_9_NH2_F_H
C          2.81700       -1.18210       -0.27430
C          1.36550       -1.55180        0.15470
N          2.80530       -0.12360       -1.28620
H          3.38570       -0.79820        0.60140
F          1.24240       -1.45360        1.52880
C          3.52930       -2.43430       -0.80060
C          2.71530       -3.10700       -1.91440
C          1.20600       -3.01290       -1.62780
O          0.97590       -2.86240       -0.24280
H          4.56950       -2.22880       -1.13210
H          3.58400       -3.15500        0.04510
H          2.90930       -2.67540       -2.92010
H          0.70600       -3.92870       -2.00560
H          0.74100       -2.16560       -2.18310
H          2.38690        0.74130       -0.87320
H          2.23310       -0.39520       -2.11590
