24
TSA8_9_OMe_CHF2_CCl3
C          1.26780        1.52270        0.20900
C          1.72150        0.78720       -1.03520
O          2.36860        1.58000        1.10090
H          0.39070        0.98030        0.64340
C          1.04160       -0.48080       -1.46970
C          0.78110        2.96180       -0.14340
C         -0.38660        2.85700       -1.11000
C         -0.33140        3.35360       -2.34940
O          2.65960        1.22540       -1.68560
C          0.35540        3.81020        1.09540
H          1.62270        3.50310       -0.63320
H         -1.29700        2.35990       -0.78800
H          0.55910        3.85610       -2.71350
H         -1.18800        3.25580       -3.00870
C          2.20940        0.65400        2.15470
H          1.36840        0.95440        2.81800
H          3.13320        0.65710        2.76830
H          2.07380       -0.38130        1.77000
F         -0.29350       -0.23270       -1.72690
F          1.63410       -0.98510       -2.61500
H          1.12340       -1.23770       -0.66260
Cl         1.72510        4.13350        2.19590
Cl        -0.23460        5.41500        0.57200
Cl        -0.94690        3.02710        2.03810
