24
TSA8_9_OMe_CHF2_CCl3
C          1.47710       -0.06050       -0.06050
C          1.36980        0.41660       -1.30970
O          1.45720        0.79930        0.98520
H          1.56910       -1.12970        0.11450
C          1.37800       -0.50190       -2.50270
C          0.64340        4.26100       -0.13840
C         -0.20530        3.26500       -0.44750
C          0.03290        2.38520       -1.63950
O          1.25140        1.75290       -1.49050
C          0.50280        5.17190        1.06010
H          1.50260        4.42820       -0.78330
H         -1.07650        3.05630        0.16290
H          0.03790        2.98630       -2.57290
H         -0.79830        1.64710       -1.70300
C          1.47950        0.37840        2.29420
H          1.46180        1.26630        2.95930
H          2.40320       -0.20520        2.49510
H          0.58530       -0.24590        2.50800
F          0.19560       -0.36400       -3.20520
F          2.43690       -0.17110       -3.32720
H          1.48540       -1.56450       -2.19860
Cl         1.96870        5.01770        2.05780
Cl         0.37620        6.85260        0.49180
Cl        -0.91030        4.82650        2.10220
