24
TSA8_9_Et_CF3_OH
C          2.49510        1.15700       -0.58980
C          1.23840        0.92360       -1.41110
C          2.27330        0.56990        0.83030
H          3.30190        0.56740       -1.08160
C          1.29920        0.09180       -2.66420
C          2.98490        2.64140       -0.61730
C          2.15470        3.61970        0.19160
C          0.94080        4.04400       -0.16900
O          0.16210        1.36630       -1.04030
O          4.30440        2.67830       -0.13540
H          3.01140        2.97340       -1.68330
H          2.58790        4.03770        1.09650
H          0.46860        3.71600       -1.08480
H          0.41580        4.76250        0.45250
C          3.51240        0.56790        1.72500
H          1.95160       -0.48930        0.71840
H          1.45880        1.12120        1.34910
H          4.34140        0.01510        1.23470
H          3.26840        0.06460        2.68420
H          3.83580        1.59900        1.96890
F          0.04610       -0.01120       -3.24330
F          2.16340        0.68050       -3.56830
F          1.75550       -1.17730       -2.35730
H          4.73010        3.49810       -0.50150
