24
TSA8_9_Et_CF3_OH
C          1.85040        0.05700       -0.23480
C          1.42350        0.72190       -1.35270
C          1.96370        0.51670        1.19940
H          2.13910       -0.98360       -0.34650
C          1.37200       -0.01420       -2.67660
C          3.13370        4.62960       -1.12710
C          2.66300        3.48070       -0.61390
C          1.19790        3.13700       -0.65460
O          1.00380        2.02180       -1.44240
O          4.45440        4.91440       -1.11150
H          2.45520        5.34600       -1.57980
H          3.35470        2.77300       -0.17340
H          0.63160        3.96930       -1.12600
H          0.74370        3.02780        0.34210
C          3.38440        0.32640        1.71780
H          1.28350       -0.11630        1.81010
H          1.67920        1.55420        1.37800
H          3.69230       -0.73720        1.62950
H          3.43050        0.61650        2.78960
H          4.09740        0.95840        1.14840
F          0.07180       -0.00730       -3.14420
F          2.17660        0.64930       -3.58540
F          1.80180       -1.32870       -2.59310
H          5.11300        4.30780       -0.74340
