24
TSA8_9_Et_CF3_OH
C          2.52960        1.20470       -0.62050
C          1.10690        1.22500       -1.28670
C          2.37490        0.78850        0.86720
H          3.16090        0.42400       -1.10130
C          1.03430        0.34410       -2.53770
C          3.18230        2.58460       -0.86170
C          2.29980        3.71060       -0.29850
C          0.81000        3.39100       -0.50980
O          0.64770        2.53580       -1.62010
O          4.48890        2.65870       -0.35970
H          3.22130        2.70430       -1.97050
H          2.46650        3.91080        0.78200
H          0.25060        4.33630       -0.66430
H          0.35870        2.92450        0.39490
C          3.69740        0.55420        1.59810
H          1.82320       -0.17730        0.89080
H          1.77950        1.52810        1.43890
H          4.30360       -0.20760        1.06330
H          3.48650        0.18020        2.62230
H          4.27900        1.48920        1.70560
F         -0.25540        0.35720       -3.03590
F          1.89840        0.81890       -3.50870
F          1.37230       -0.95940       -2.22110
H          4.91390        3.44830       -0.78530
