23
TSA8_9_CCl3_CCl3_CHF2
C          2.04410       -2.15340       -0.41200
C          0.63780       -2.50840        0.08040
C          2.01220       -0.75880       -1.15320
H          2.69080       -2.04580        0.48610
C          0.30110       -2.65460        1.56600
C          2.62690       -3.31080       -1.32070
C          4.06270       -3.04180       -1.71440
C          4.44360       -2.92140       -2.99030
O         -0.24550       -2.68000       -0.74830
C          2.61340       -4.71030       -0.67020
H          1.99740       -3.39170       -2.23450
H          4.81320       -2.94990       -0.93370
H          3.72830       -3.00900       -3.80220
H          5.48550       -2.73230       -3.22670
Cl         1.13530       -0.83460       -2.71130
Cl         1.21420        0.50600       -0.18050
Cl         3.64210       -0.10280       -1.47490
Cl         1.25780       -3.93770        2.34180
Cl         0.61390       -1.15220        2.46730
Cl        -1.42210       -3.06550        1.80320
F          3.37460       -4.73080        0.48460
F          1.32630       -5.13580       -0.39760
H          3.04730       -5.44650       -1.38260
