20
TSA8_9_Cl_Me_CH2F
C          2.10730        2.16570        0.55150
C          0.89240        2.67150       -0.18850
Cl         1.74100        0.52200        1.16040
H          2.96310        2.08100       -0.15480
C          0.97680        3.00480       -1.64720
C          2.50570        3.10710        1.71550
C          3.70700        2.54700        2.44540
C          3.65950        2.21950        3.74040
O         -0.16880        2.81100        0.40230
C          2.85050        4.51690        1.20650
H          1.64230        3.19250        2.41420
H          4.63740        2.40640        1.90170
H          2.74960        2.34430        4.31950
H          4.54100        1.82030        4.23140
H          1.73060        3.80440       -1.80370
H         -0.00550        3.35950       -2.02610
H          1.27650        2.10180       -2.21910
F          3.18550        5.33880        2.26840
H          1.98120        4.96790        0.68410
H          3.70560        4.47670        0.49710
