20
TSA8_9_Cl_Me_CH2F
C          1.94230        0.25120       -0.04310
C          1.47380        1.48060        0.24760
Cl         2.25390       -0.97430        1.18120
H          2.11480       -0.03670       -1.07590
C          1.17180        2.45610       -0.85530
C          2.51560        4.49980        1.93250
C          3.06110        3.28490        2.08870
C          2.21800        2.10030        2.47370
O          1.23360        1.87330        1.52680
C          3.34790        5.68340        1.54590
H          1.44820        4.63850        2.08300
H          4.12830        3.14430        1.93980
H          1.73460        2.31100        3.45060
H          2.86430        1.20940        2.59890
H          1.79070        3.36660       -0.72130
H          0.09970        2.74000       -0.81290
H          1.38550        2.03310       -1.86040
F          4.31840        5.91300        2.50410
H          2.70140        6.58230        1.46430
H          3.83250        5.50020        0.56370
