18
TSA8_9_Me_Br_OH
C          1.67440       -0.33320        1.86360
C          1.10570        0.86760        1.14120
C          1.49210       -1.59160        1.00000
H          2.76790       -0.15730        1.96680
Br         2.24410        2.33740        0.69200
C          1.13730       -0.53350        3.31270
C         -0.34640       -0.82500        3.42690
C         -1.29050        0.10180        3.23890
O         -0.05800        0.89370        0.77310
O          1.84540       -1.60340        3.88720
H          1.36570        0.39010        3.89650
H         -0.66140       -1.82080        3.72690
H         -1.03780        1.12620        2.99190
H         -2.33670       -0.15940        3.35920
H          0.41440       -1.82490        0.86360
H          1.98850       -2.46550        1.47210
H          1.95270       -1.43760        0.00040
H          1.78250       -1.50010        4.87370
