18
TSA8_9_Me_Br_OH
C          1.81060        0.01470        0.00750
C          1.11730        0.54560        1.02630
C          2.17210       -1.44140       -0.07900
H          2.12930        0.65950       -0.80580
Br         0.72840        2.43090        0.97680
C          0.07950       -0.87070        5.34290
C         -0.30930       -0.92040        4.05980
C         -0.05940        0.21600        3.11180
O          0.70480       -0.23540        2.05810
O         -0.15160       -1.90190        6.18510
H          0.59040        0.00690        5.72700
H         -0.82110       -1.80250        3.68480
H          0.46760        1.05130        3.62510
H         -1.03720        0.58500        2.73380
H          1.80460       -2.02600        0.79000
H          3.27620       -1.54080       -0.12890
H          1.72970       -1.87040       -1.00210
H         -0.60140       -2.71200        5.90300
