18
TSA8_9_Me_Br_OH
C          1.69170       -0.56190        2.09090
C          1.12180        0.74600        1.51050
C          1.50550       -1.69960        1.07210
H          2.78730       -0.45250        2.24970
Br         1.75240        2.36380        2.40350
C          1.00640       -0.84310        3.44540
C         -0.51680       -0.81170        3.27750
C         -0.91950        0.52020        2.63290
O         -0.29230        0.70510        1.37220
O          1.42700       -2.07720        3.96440
H          1.30110       -0.02960        4.14900
H         -0.86430       -1.65600        2.64580
H         -0.70570        1.37060        3.31580
H         -2.01900        0.51260        2.48210
H          1.93080       -2.64560        1.46810
H          2.04400       -1.45000        0.13290
H          0.43880       -1.86470        0.81790
H          1.11630       -2.10940        4.90700
