21
TSA8_9_OMe_F_CH2F
C          0.21950        0.28200        1.65300
C          0.82290        1.04400        0.44050
O          1.16970       -0.56640        2.27270
H         -0.64820       -0.30490        1.26850
F         -0.09410        1.17430       -0.59240
C         -0.29740        1.28700        2.71380
C         -0.88590        2.49310        1.98860
C          0.27930        3.18860        1.23940
O          1.32370        2.31360        0.80690
C         -1.29280        0.64640        3.68820
H          0.56350        1.66390        3.31380
H         -1.66300        2.13210        1.27840
H          0.74290        3.87830        1.97580
H         -0.10460        3.80800        0.40210
C          1.49650       -1.65320        1.42970
H          1.97170       -2.44250        2.04790
H          2.23120       -1.33780        0.65810
H          0.60360       -2.12470        0.96290
F         -2.41410        0.18490        3.02000
H         -1.61030        1.39540        4.44460
H         -0.81140       -0.20200        4.21880
