19
TSA8_9_Me_NH2_I
C          2.69590       -1.08000        0.21950
C          1.38770       -1.35340        0.94160
C          2.44070       -0.12180       -0.95580
H          3.36230       -0.55780        0.94060
N          1.24610       -1.02580        2.24840
C          3.46800       -2.36390       -0.21240
C          2.86570       -3.15490       -1.35550
C          1.76360       -3.90070       -1.24180
O          0.43940       -1.83600        0.34270
I          5.47750       -1.82430       -0.77610
H          3.60830       -3.03350        0.66400
H          3.37410       -3.15450       -2.31510
H          1.22960       -3.99280       -0.30550
H          1.39990       -4.45590       -2.10070
H          1.77490       -0.59360       -1.71000
H          3.38910        0.16550       -1.45260
H          1.95450        0.80730       -0.58890
H          0.35360       -1.19670        2.73610
H          2.02110       -0.60300        2.77920
