15
TSA8_9_Cl_CN_Br
C          1.61800       -1.84500       -0.40430
C          1.74640       -1.74780        1.14200
Cl         3.09610       -1.20260       -1.17390
H          0.74510       -1.26250       -0.77970
C          1.42610       -0.41720        1.67220
C          1.37490       -3.31930       -0.72990
C          0.02210       -3.71120       -0.11730
C         -0.16760       -3.07290        1.27390
O          1.07420       -2.77580        1.87260
Br         1.38770       -3.74840       -2.62450
H          2.17790       -3.92560       -0.25260
H         -0.82150       -3.34830       -0.74960
H         -0.74170       -3.77630        1.91280
H         -0.77600       -2.14040        1.21160
N          1.16000        0.63100        2.08650
