23
TSA8_9_CBr3_Me_CBr3
C          1.05560       -1.57950        0.90500
C          2.18870       -2.61140        0.76540
C          1.49810       -0.06830        1.02500
H          0.60520       -1.54250       -0.11370
C          3.64160       -2.38100        1.08790
C         -0.15250       -2.08180        1.82130
C         -0.86990       -3.20570        1.07870
C         -2.11000       -3.06000        0.59540
O          1.91040       -3.71560        0.32340
C          0.08980       -2.55790        3.30150
H         -0.87680       -1.24610        1.88750
H         -0.38190       -4.16240        0.93350
H         -2.65550       -2.12850        0.71040
H         -2.58950       -3.88310        0.07590
Br        -0.04070        1.11400        0.87610
Br         2.48960        0.53400        2.58350
Br         2.60610        0.39750       -0.51000
H          3.96430       -3.10560        1.86460
H          3.87390       -1.37440        1.45330
H          4.24870       -2.54700        0.17340
Br         0.64620       -1.18610        4.53620
Br        -1.59280       -3.16180        4.08260
Br         1.32180       -4.05300        3.47190
