23
TSA8_9_CBr3_Me_CBr3
C          1.38890       -0.45350       -0.10970
C          1.95050       -1.52180        0.52330
C          2.08290        0.51780       -1.04630
H          0.33700       -0.26010        0.05290
C          3.40480       -1.88140        0.37780
C         -1.17670       -3.22600        3.62050
C         -0.54810       -3.41730        2.44930
C         -0.14650       -2.27690        1.56150
O          1.21510       -2.33870        1.33360
C         -1.58130       -4.38090        4.49970
H         -1.40800       -2.21460        3.94400
H         -0.32300       -4.42660        2.11510
H         -0.41310       -1.29800        2.01890
H         -0.68770       -2.38910        0.59660
Br         0.80210        1.84570       -1.64860
Br         3.51870        1.48780       -0.17330
Br         2.75050       -0.37000       -2.63800
H          3.63180       -2.78650        0.98100
H          4.05700       -1.06770        0.74860
H          3.65070       -2.11720       -0.67430
Br        -2.49570       -3.72500        6.07740
Br        -2.78710       -5.57220        3.55410
Br        -0.01880       -5.37770        5.07300
