23
TSA8_9_CBr3_Me_CBr3
C          0.68940       -1.46310        1.14070
C          1.74310       -2.62120        0.96270
C          1.24250       -0.05150        1.54930
H          0.28790       -1.24990        0.12670
C          3.04760       -2.27640        0.25060
C         -0.54380       -2.05820        1.95040
C         -0.93630       -3.43930        1.33360
C         -0.15530       -3.77370        0.06810
O          1.23150       -3.81500        0.35820
C         -0.47810       -2.22010        3.52020
H         -1.40170       -1.38260        1.75140
H         -0.68750       -4.27070        2.02850
H         -0.37890       -3.08690       -0.77460
H         -0.47120       -4.78240       -0.27160
Br        -0.19420        1.24090        1.78020
Br         2.41900       -0.06990        3.09860
Br         2.26610        0.77210        0.10790
H          3.69550       -3.17740        0.22310
H          3.61280       -1.50620        0.80880
H          2.85070       -1.95270       -0.79280
Br        -0.49920       -0.57260        4.54260
Br        -2.08890       -3.10440        4.18120
Br         1.03940       -3.28620        4.11040
