21
TSA8_9_OH_CHF2_CHF2
C          2.10530        1.49330       -1.62130
C          0.85300        1.01650       -2.31750
O          1.91950        1.34880       -0.23490
H          2.97920        0.87850       -1.95140
C          0.89180       -0.17390       -3.23320
C          2.42250        2.97890       -1.93090
C          3.62520        3.41400       -1.12180
C          3.54210        4.36600       -0.18700
O         -0.20790        1.58570       -2.10690
C          2.68880        3.22780       -3.42700
H          1.53700        3.58820       -1.63520
H          4.58440        2.93200       -1.29580
H          2.60160        4.86540        0.02450
H          4.42210        4.64770        0.38140
H          2.31610        0.47710        0.02610
F         -0.36980       -0.44800       -3.73170
F          1.75220        0.06830       -4.28750
H          1.24980       -1.05700       -2.66440
F          2.92870        4.57320       -3.64650
F          3.78310        2.49860       -3.86060
H          1.80460        2.93510       -4.03040
