21
TSA8_9_OH_CHF2_CHF2
C          1.76500        0.04550       -0.17050
C          1.47430        0.59350       -1.37280
O          2.16530        0.77910        0.88650
H          1.65330       -1.02670       -0.02960
C          0.97870       -0.28850       -2.48620
C          2.57070        4.18330       -3.18890
C          3.17090        3.56460       -2.16160
C          2.37250        2.89630       -1.08220
O          1.57630        1.92320       -1.66120
C          3.36560        4.83280       -4.28060
H          1.48550        4.21290       -3.24490
H          4.25630        3.53330       -2.10680
H          1.72850        3.64850       -0.57890
H          3.09220        2.48200       -0.35240
H          2.35600        0.35780        1.73590
F         -0.27520        0.13620       -2.88390
F          1.84640       -0.19660       -3.55850
H          0.90950       -1.35430       -2.17990
F          4.16540        5.83120       -3.75530
F          4.15790        3.88960       -4.91010
H          2.67530        5.27760       -5.02740
