21
TSA8_9_OH_CHF2_CHF2
C          2.73000        1.46700       -2.01020
C          1.35330        1.07120       -1.37340
O          3.71630        1.52840       -1.01170
H          3.04550        0.71350       -2.76880
C          0.53880        0.16390       -2.30050
C          2.57790        2.85290       -2.66730
C          2.15020        3.89060       -1.60670
C          1.32550        3.23500       -0.48520
O          0.53760        2.18670       -1.00320
C          3.82380        3.31560       -3.43830
H          1.74930        2.77410       -3.40360
H          3.00540        4.40710       -1.11850
H          0.68180        4.00070       -0.00550
H          1.98550        2.84270        0.32240
H          3.85050        0.59920       -0.68830
F         -0.61940       -0.23300       -1.65840
F          0.20370        0.82310       -3.46930
H          1.12800       -0.74340       -2.55060
F          4.91340        3.44310       -2.59450
F          4.12870        2.40830       -4.43740
H          3.62230        4.30060       -3.91090
