23
TSA8_9_OMe_Me_NO2
C          1.55610       -0.09080        0.13720
C          1.30320       -0.51050       -1.10880
O          1.64510        1.23830        0.38150
H          1.65600       -0.80410        0.95190
C          1.15870       -1.97860       -1.42270
C          0.36620        2.94800       -3.22350
C         -0.40800        1.88140       -2.95040
C          0.16260        0.49380       -3.00630
O          1.18410        0.42540       -2.08200
N         -0.11660        4.28350       -3.15680
H          1.40600        2.78780       -3.50080
H         -1.45000        2.00980       -2.67110
H          0.55700        0.29420       -4.02460
H         -0.64170       -0.23880       -2.77780
C          1.73690        1.75720        1.65070
H          1.78710        2.86380        1.58440
H          2.64980        1.37990        2.15660
H          0.83500        1.47870        2.23770
H          1.92780       -2.26780       -2.16960
H          0.15410       -2.19310       -1.83870
H          1.29910       -2.60910       -0.51850
O         -1.24230        4.51760       -2.82950
O          0.69440        5.28060       -3.43670
