23
TSA8_9_CBr3_CBr3_CH2F
C          2.11740       -1.82250       -1.08900
C          0.71890       -2.35220       -0.74130
C          2.06350       -0.25780       -1.31560
H          2.77130       -2.02500       -0.21380
C          0.39060       -3.03820        0.59180
C          2.69130       -2.58990       -2.34930
C          4.12360       -2.20810       -2.64920
C          4.49280       -1.66720       -3.81420
O         -0.17180       -2.22340       -1.56910
C          2.66580       -4.12110       -2.21480
H          2.04500       -2.35580       -3.22250
H          4.88430       -2.39050       -1.89320
H          3.76870       -1.47220       -4.59830
H          5.53460       -1.41550       -3.98500
Br         1.17070        0.69740        0.11860
Br         3.82040        0.57390       -1.37630
Br         1.11760        0.24880       -2.94390
Br         0.74780       -1.92050        2.13190
Br        -1.48820       -3.53500        0.68600
Br         1.39560       -4.66770        0.86720
F          3.50560       -4.54470       -1.20050
H          3.01390       -4.58130       -3.16520
H          1.63530       -4.49140       -2.03930
