23
TSA8_9_CBr3_CBr3_CH2F
C          1.58010       -0.06880       -0.03990
C          1.46000       -1.41620       -0.20980
C          1.80680        0.98220       -1.11400
H          1.45300        0.33680        0.95340
C          1.14340       -2.34970        0.95390
C          2.92270       -3.97500       -3.83140
C          2.93040       -3.52230       -2.56990
C          2.65610       -2.08470       -2.23510
O          1.53420       -2.00400       -1.43750
C          3.21610       -5.41300       -4.13470
H          2.70380       -3.30220       -4.65580
H          3.14650       -4.20890       -1.75720
H          2.47950       -1.49340       -3.16030
H          3.55100       -1.69950       -1.70740
Br         1.55830        2.73970       -0.32840
Br         3.60920        0.99460       -1.82640
Br         0.51280        0.82370       -2.55200
Br         0.95730       -1.53550        2.71760
Br        -0.52420       -3.26300        0.57870
Br         2.54130       -3.68070        1.10870
F          4.49450       -5.73120       -3.71240
H          3.14520       -5.58670       -5.22840
H          2.48280       -6.06800       -3.61820
