23
TSA8_9_CBr3_CBr3_CH2F
C          2.06120       -1.58880       -1.79090
C          1.84640       -2.66550       -0.63130
C          0.82110       -0.80080       -2.36020
H          2.70240       -0.78970       -1.36180
C          1.08290       -2.30160        0.67690
C          2.94540       -2.26150       -2.91490
C          4.14340       -3.04200       -2.32310
C          4.23560       -2.84760       -0.82210
O          3.05170       -3.33400       -0.22820
C          2.18410       -3.17530       -3.89500
H          3.39210       -1.44720       -3.52100
H          4.01410       -4.14080       -2.46950
H          4.44960       -1.79700       -0.53130
H          5.09070       -3.44940       -0.44870
Br         0.16750        0.55870       -1.13620
Br         1.30380        0.28080       -3.90950
Br        -0.67770       -1.92920       -2.89160
Br         1.87090       -0.77300        1.57690
Br        -0.83680       -2.09360        0.48480
Br         1.20120       -3.78940        1.93020
F          3.05460       -3.70240       -4.83620
H          1.42260       -2.60380       -4.45940
H          1.69220       -4.00820       -3.35270
