19
TSA8_9_CF3_NH2_H
C          1.68370       -1.60920        0.67840
C          0.93420       -0.47670        1.35970
C          1.51860       -1.52240       -0.85440
H          2.76840       -1.47370        0.88750
N          1.59550        0.41710        2.13340
C          1.33870       -3.02080        1.23280
C         -0.08330       -3.49740        1.05420
C         -1.10430       -3.02760        1.77710
O         -0.26830       -0.34230        1.19060
H          1.99280       -3.74300        0.69740
H          1.60710       -3.08900        2.30940
H         -0.27840       -4.29200        0.33990
H         -0.95680       -2.27010        2.53880
H         -2.10340       -3.42200        1.62460
F          2.28970       -2.49160       -1.47230
F          0.19710       -1.70080       -1.22410
F          1.94180       -0.28190       -1.30030
H          1.08710        1.19230        2.58460
H          2.61090        0.33920        2.28720
