19
TSA8_9_CF3_NH2_H
C          1.73420       -1.74290        0.52690
C          0.80530       -0.71040        1.20530
C          1.59910       -1.66840       -1.00970
H          2.79460       -1.48780        0.74620
N          1.17130       -0.45460        2.59840
C          1.44280       -3.14010        1.11440
C         -0.05230       -3.45810        1.06780
C         -0.82630       -2.31040        1.72710
O         -0.56710       -1.06990        1.08440
H          2.03250       -3.92880        0.60110
H          1.74640       -3.14020        2.18460
H         -0.40040       -3.60120        0.02600
H         -0.59850       -2.25220        2.81450
H         -1.91190       -2.52900        1.65070
F          2.45640       -2.58070       -1.59880
F          0.31050       -1.92100       -1.44060
F          1.95450       -0.40060       -1.43630
H          0.52920        0.27980        2.97310
H          2.13840       -0.05860        2.61820
