20
TSA8_9_F_CBr3_CCl3
C          2.55070       -1.70130       -1.76830
C          1.33070       -2.57420       -1.53390
F          2.33370       -0.52250       -1.07350
H          3.45320       -2.17930       -1.33460
C          1.12980       -3.29840       -0.21790
C          2.84250       -1.37320       -3.26400
C          3.83170       -0.22120       -3.31460
C          3.52040        0.95890       -3.85970
O          0.46980       -2.66060       -2.40050
C          3.42040       -2.57620       -4.08490
H          1.89100       -1.03920       -3.73640
H          4.82300       -0.34990       -2.88840
H          2.54240        1.13860       -4.29440
H          4.25310        1.75960       -3.87310
Br        -0.55700       -4.26540       -0.17070
Br         2.54970       -4.59370        0.03770
Br         1.13470       -2.06170        1.27640
Cl         3.65770       -2.08610       -5.78680
Cl         5.00250       -3.12370       -3.45110
Cl         2.35430       -4.00520       -4.12950
