20
TSA8_9_F_CBr3_CCl3
C          3.15000       -1.85910       -1.75440
C          1.73940       -1.36490       -1.28750
F          4.08260       -0.89690       -1.40650
H          3.42950       -2.79600       -1.23150
C          0.92020       -2.41410       -0.51040
C          3.14420       -2.05610       -3.28800
C          2.73850       -0.72950       -3.97400
C          1.74400        0.06190       -3.11060
O          0.95530       -0.82730       -2.35280
C          4.44790       -2.65390       -3.87910
H          2.33370       -2.78460       -3.50380
H          3.59100       -0.05390       -4.20120
H          1.10440        0.69300       -3.76140
H          2.28260        0.76690       -2.43340
Br        -0.76550       -1.63530        0.05050
Br         0.53210       -3.98620       -1.58230
Br         1.85230       -2.96180        1.10240
Cl         4.26430       -2.90550       -5.63770
Cl         5.87050       -1.60410       -3.61680
Cl         4.79250       -4.24900       -3.15470
