18
TSA8_9_Br_NO2_NH2
C          3.02610       -1.54160       -0.27210
C          1.51220       -1.56000       -0.13950
Br         3.62170        0.31410       -0.33330
H          3.46840       -1.97840        0.64730
N          0.89570       -2.15370        0.92280
C          3.60280       -2.38260       -1.45010
C          3.24790       -1.88890       -2.84390
C          2.03190       -2.01340       -3.38320
O          0.83370       -0.99650       -0.98660
N          5.06250       -2.43930       -1.31530
H          3.23470       -3.42840       -1.34810
H          4.03030       -1.45640       -3.46200
H          1.21710       -2.48450       -2.84710
H          1.85150       -1.66110       -4.39380
O         -0.29560       -2.13680        1.00990
O          1.59440       -2.75550        1.86240
H          5.49000       -1.49880       -1.47720
H          5.45470       -3.10400       -2.02210
