18
TSA8_9_Br_NO2_NH2
C          2.93630       -1.41560       -0.40710
C          1.37820       -1.47900       -0.52760
Br         3.59370        0.32220       -1.00890
H          3.24510       -1.48230        0.65850
N          0.82200       -2.17270        0.62030
C          3.52720       -2.58280       -1.20940
C          3.10580       -2.48570       -2.68950
C          1.73380       -1.80380       -2.83090
O          0.90910       -2.10800       -1.72910
N          4.98000       -2.67830       -1.06350
H          3.07490       -3.50920       -0.78880
H          3.82250       -1.91190       -3.31670
H          1.25550       -2.14140       -3.77330
H          1.83230       -0.69980       -2.92550
O          0.16620       -3.16100        0.47920
O          0.99270       -1.67930        1.82800
H          5.44570       -1.85030       -1.50000
H          5.31710       -3.53930       -1.55240
