26
TSA8_9_CH2F_CH2F_Et
C          2.78750        0.01400       -2.10150
C          1.57320       -0.85810       -2.37350
C          2.53030        0.87760       -0.85440
H          3.64050       -0.64850       -1.84320
C          1.68970       -2.35400       -2.30830
C          3.21350        0.88620       -3.32850
C          2.13900        1.88640       -3.71320
C          2.33870        3.20590       -3.63570
O          0.48960       -0.35030       -2.62130
C          3.57340        0.05150       -4.58090
H          4.13150        1.44520       -3.03590
H          1.17820        1.53270       -4.07190
H          1.54740        3.89050       -3.92350
H          3.28190        3.61410       -3.28680
F          3.66020        1.60870       -0.53200
H          2.28070        0.22460        0.00950
H          1.68240        1.57610       -1.01870
F          0.46890       -2.95390       -2.56550
H          2.03050       -2.65420       -1.29520
H          2.42610       -2.70530       -3.05930
C          4.77810       -0.87000       -4.37630
H          3.83850        0.75160       -5.40440
H          2.69920       -0.55020       -4.91170
H          5.66720       -0.27760       -4.07220
H          5.00960       -1.38850       -5.33050
H          4.57520       -1.64550       -3.61220
