20
TSA8_9_CCl3_NO2_CN
C          1.56760       -0.01710       -0.03450
C          1.22050       -0.78360       -1.23180
C          1.74570        1.38090        0.38940
H          1.42510       -0.67340        0.81200
N          1.63750       -2.14140       -1.17420
C          1.08970        1.57000       -5.00060
C          1.29460        1.36390       -3.70160
C          0.22630        0.81240       -2.80320
O          0.61620       -0.46600       -2.45680
C          2.23880        1.80570       -5.83170
H          0.10590        1.46360       -5.44570
H          2.29590        1.48330       -3.31760
H         -0.72090        0.71590       -3.36520
H         -0.07250        1.41750       -1.93520
Cl         1.68930        2.72080       -0.77580
Cl         0.88630        1.93690        1.84270
Cl         3.44490        1.17560        0.88310
O          1.18490       -2.88930       -1.97500
O          2.40110       -2.61780       -0.20490
N          3.19010        1.99430       -6.46120
