20
TSA8_9_CCl3_NO2_CN
C          2.10730        0.39760       -1.83100
C          0.90760       -0.56210       -1.49900
C          2.26610        1.53140       -0.73230
H          3.04980       -0.19430       -1.80540
N          1.35750       -1.94020       -1.47290
C          1.93830        0.79240       -3.32260
C          0.61920        1.52790       -3.56050
C         -0.47560        0.93640       -2.66420
O         -0.21200       -0.42630       -2.38770
C          3.08120        1.46330       -3.95710
H          1.84810       -0.16980       -3.87520
H          0.65930        2.62690       -3.39870
H         -1.45100        1.04420       -3.18090
H         -0.56970        1.50680       -1.71650
Cl         2.37820        3.19550       -1.36820
Cl         0.96880        1.53830        0.51170
Cl         3.77200        1.25640        0.19090
O          0.89960       -2.74760       -2.22410
O          2.26050       -2.31440       -0.59210
N          3.96290        1.98990       -4.49060
