22
TSA8_9_OH_Et_CN
C          2.34730       -1.87900        0.23880
C          1.19120       -1.22110        1.07800
O          2.25870       -1.55520       -1.13500
H          3.32920       -1.49040        0.58200
C          1.67600       -0.55200        2.39470
C          2.23580       -3.39120        0.44410
C          0.90570       -3.85790       -0.14820
C         -0.24040       -2.90260        0.23410
O          0.08230       -2.09030        1.34540
C          3.34780       -4.18110       -0.10080
H          2.22910       -3.58060        1.53790
H          0.94330       -3.90500       -1.26360
H         -1.11340       -3.53940        0.48450
H         -0.55560       -2.25840       -0.61420
H          1.34450       -1.23110       -1.34730
C          1.21200       -1.24720        3.67970
H          1.27180        0.48050        2.41300
H          2.78290       -0.46260        2.42220
H          0.10150       -1.25400        3.73550
H          1.58820       -0.68450        4.56100
H          1.59130       -2.28840        3.73100
N          4.20600       -4.83830       -0.51430
