18
TSA8_9_H_OMe_I
C          2.27220        1.34250       -0.44690
C          1.11680        1.25380       -1.44510
H          1.78140        1.15500        0.53300
H          3.00160        0.51490       -0.57380
O          1.22900        1.22400       -2.79910
C          2.99300        2.71430       -0.32770
C          3.57500        2.90180        1.05900
C          2.80290        2.97670        2.14940
O         -0.00610        1.11190       -0.98480
I          4.66450        2.93290       -1.67160
H          2.26800        3.54210       -0.48500
H          4.64820        3.00490        1.19140
H          1.72180        2.90250        2.08000
H          3.25380        3.12500        3.12500
C          2.34840        1.42240       -3.56430
H          2.09690        1.20770       -4.62300
H          3.16440        0.73850       -3.24930
H          2.64000        2.48720       -3.52020
