20
TSA8_9_CHF2_NO2_OH
C          2.20520       -1.90400        0.68970
C          0.75120       -2.13840        0.16760
C          2.86490       -0.76260       -0.11190
H          2.18380       -1.57320        1.75270
N         -0.23400       -1.75470        1.15900
C          2.97580       -3.24250        0.64650
C          2.87080       -3.91840       -0.72890
C          1.45540       -3.74770       -1.31000
O          0.53020       -3.47440       -0.27720
O          4.31400       -3.08940        1.03980
H          2.44790       -3.90540        1.37420
H          3.61570       -3.56050       -1.47130
H          1.16730       -4.66990       -1.85480
H          1.43120       -2.93360       -2.07200
F          4.12960       -0.49130        0.37870
F          2.96000       -1.06180       -1.45810
H          2.25350        0.15860       -0.00500
O         -1.03360       -2.54600        1.56090
O         -0.26880       -0.51720        1.60330
H          4.61360       -3.97010        1.38740
