19
TSA8_9_NO2_CH2F_Cl
C          2.63570       -0.07700       -1.43660
C          1.39660       -0.93310       -1.61220
N          2.33750        1.05530       -0.57230
H          3.41540       -0.69220       -0.92860
C          1.38120       -2.35210       -1.12120
C          3.26890        0.33520       -2.79990
C          2.37820        1.10660       -3.75120
C          2.03350        2.38300       -3.56360
O          0.40340       -0.46950       -2.15350
Cl         3.81250       -1.15100       -3.64040
H          4.19080        0.92930       -2.61720
H          2.03120        0.61920       -4.65850
H          1.40700        2.88450       -4.29430
H          2.38390        2.94640       -2.70760
O          2.92810        1.18380        0.45760
O          1.33140        1.86110       -0.83480
F          0.15790       -2.94670       -1.37870
H          1.56670       -2.36820       -0.02710
H          2.17690       -2.93100       -1.63440
