20
TSA8_9_CCl3_F_CF3
C          1.50080       -2.25940       -0.81810
C          1.29240       -1.52380        0.49400
C          1.62490       -1.23140       -1.99730
H          2.50190       -2.73880       -0.73880
F          2.25370       -1.57570        1.45220
C          0.46030       -3.44400       -0.89810
C         -0.98910       -2.99540       -0.88590
C         -1.81220       -3.28460        0.12760
O          0.27830       -0.87670        0.70260
C          0.66020       -4.44180       -2.05670
H          0.65430       -4.03790        0.02570
H         -1.38830       -2.43810       -1.72460
H         -1.46900       -3.84830        0.98960
H         -2.84540       -2.95460        0.09730
Cl         2.20780       -1.97370       -3.50930
Cl         0.12160       -0.33350       -2.34360
Cl         2.87180       -0.01070       -1.59730
F          0.27530       -3.90190       -3.26950
F          1.98120       -4.84780       -2.12240
F         -0.12470       -5.56030       -1.83200
