20
TSA8_9_CCl3_F_CF3
C          1.81030       -0.04630       -0.03360
C          1.11410       -1.13090        0.35680
C          2.15660        0.37710       -1.44830
H          2.15500        0.61970        0.75330
F          0.89140       -1.30280        1.68970
C         -0.35110       -5.24060       -1.26920
C         -0.54240       -3.91090       -1.33760
C         -0.26710       -3.02050       -0.16040
O          0.62920       -2.03840       -0.52280
C         -0.62170       -6.17420       -2.41720
H          0.00720       -5.68410       -0.34420
H         -0.91450       -3.45130       -2.24780
H          0.13610       -3.60800        0.69440
H         -1.21930       -2.54200        0.15430
Cl         1.58570       -0.69490       -2.76130
Cl         1.45550        1.98790       -1.72850
Cl         3.92600        0.50560       -1.58370
F         -1.04810       -5.49730       -3.54670
F          0.53720       -6.86400       -2.71970
F         -1.59790       -7.07760       -2.04230
