25
TSA8_9_NO2_CCl3_Et
C          2.99410       -0.39750       -1.98880
C          1.75370       -1.27670       -2.12980
N          2.75920        0.58480       -0.94170
H          3.83670       -1.04050       -1.65600
C          1.77290       -2.74810       -1.75890
C          3.44620        0.32160       -3.30630
C          2.35610        1.20940       -3.87810
C          2.49220        2.53680       -3.96210
O          0.69920       -0.76800       -2.48110
C          3.91840       -0.64060       -4.42060
H          4.32020        0.96070       -3.04300
H          1.43750        0.76430       -4.24520
H          1.69150        3.13700       -4.38210
H          3.39140        3.03510       -3.61380
O          3.43620        0.58130        0.04240
O          1.78960        1.46900       -1.04960
Cl         2.89630       -3.66340       -2.78910
Cl         2.26840       -2.93120       -0.05660
Cl         0.15750       -3.49400       -1.93710
C          5.20910       -1.38830       -4.07270
H          4.14610       -0.04030       -5.33000
H          3.11200       -1.35930       -4.68030
H          6.02500       -0.66460       -3.86200
H          5.51260       -2.01750       -4.93590
H          5.08790       -2.04940       -3.19550
