25
TSA8_9_NO2_CCl3_Et
C          3.25800       -0.04470       -2.05890
C          1.76580       -0.29330       -1.71160
N          3.84930        0.84000       -1.07540
H          3.74790       -1.03650       -2.00690
C          1.31890       -1.73830       -1.37750
C          3.43250        0.54790       -3.48090
C          2.33120        0.01150       -4.38380
C          0.97570        0.49540       -3.83570
O          0.82000        0.49050       -2.41960
C          4.84550        0.31890       -4.07390
H          3.27000        1.64950       -3.43490
H          2.37580       -1.08930       -4.43150
H          0.14710       -0.06140       -4.32010
H          0.88600        1.55900       -4.14440
O          4.75200        0.46310       -0.38980
O          3.38140        2.06210       -0.91520
Cl         1.49310       -2.86920       -2.74350
Cl         2.28590       -2.36750       -0.01700
Cl        -0.38770       -1.74880       -0.86800
C          5.21290       -1.15110       -4.33930
H          5.60400        0.75990       -3.39190
H          4.90700        0.85610       -5.04510
H          5.23110       -1.75370       -3.41020
H          6.22800       -1.20220       -4.78510
H          4.50800       -1.61630       -5.05910
