18
TSA8_9_NH2_Cl_NH2
C          1.67230        0.06220        2.31950
C          1.27310        0.80780        1.06470
N          1.59860       -1.38570        2.10280
H          2.73150        0.31630        2.54800
Cl         2.42190        1.86670        0.26360
C          0.83630        0.50180        3.55030
C         -0.65150        0.26520        3.37270
C         -1.52980        1.27350        3.38870
O          0.15720        0.67360        0.58680
N          1.30980       -0.19030        4.75130
H          1.02280        1.59030        3.69290
H         -1.02050       -0.74600        3.23140
H         -1.20530        2.30060        3.52800
H         -2.58830        1.07460        3.25880
H          2.25840       -1.65520        1.33660
H          0.63400       -1.67200        1.82080
H          1.11460       -1.21610        4.68180
H          0.80300        0.18070        5.58800
