18
TSA8_9_NH2_Cl_NH2
C          1.99460        0.09990        0.15870
C          1.19500        0.85870        0.92140
N          2.34140       -1.22660        0.52360
H          2.38950        0.50570       -0.76810
Cl         0.81570        2.49660        0.37820
C         -0.24720        0.58470        5.34720
C         -0.51380        0.20270        4.09010
C         -0.16430        1.06140        2.90970
O          0.69200        0.36640        2.08300
N         -0.58720       -0.24220        6.44640
H          0.23490        1.53920        5.53940
H         -0.99740       -0.75270        3.90670
H          0.31850        2.00940        3.23590
H         -1.09940        1.30500        2.36060
H          2.95630       -1.77830       -0.09140
H          1.99020       -1.65860        1.39070
H         -1.04490       -1.15480        6.30650
H         -0.37540        0.06990        7.40480
