18
TSA8_9_NH2_Cl_NH2
C          1.67920        0.05830        2.44560
C          1.09340        0.89770        1.29090
N          1.60280       -1.36880        2.11760
H          2.75380        0.31080        2.58200
Cl         1.56720        2.62590        1.33230
C          0.91820        0.38620        3.74870
C         -0.59500        0.25470        3.52780
C         -0.99450        1.11970        2.32720
O         -0.31040        0.72020        1.14780
N          1.37000       -0.45540        4.85800
H          1.12700        1.44790        4.00930
H         -0.88350       -0.80080        3.33760
H         -0.82860        2.19790        2.54380
H         -2.08560        1.00270        2.16110
H          2.21130       -1.56160        1.28930
H          0.62780       -1.65380        1.87690
H          1.11870       -1.45530        4.67950
H          0.88640       -0.15330        5.73490
