22
TSA8_9_CH2F_CHF2_NH2
C          2.76430       -0.16880        1.02150
C          1.33380        0.18050        1.38630
C          2.80380       -0.68360       -0.43240
H          3.35890        0.77140        1.05670
C          0.96720        1.59980        1.71780
C          3.37480       -1.13760        2.07950
C          2.71700       -2.50450        2.08070
C          2.05910       -2.97720        3.14310
O          0.47290       -0.68780        1.40140
N          4.82030       -1.28320        1.89180
H          3.22680       -0.64780        3.07000
H          2.78680       -3.12670        1.19360
H          1.96480       -2.39360        4.05310
H          1.60650       -3.96280        3.10310
F          4.10040       -0.88160       -0.86680
H          2.34200        0.07370       -1.10200
H          2.22920       -1.62710       -0.54250
F         -0.38180        1.70360        2.00810
F          1.69790        2.02460        2.81180
H          1.19820        2.25210        0.84960
H          5.03090       -1.87090        1.05480
H          5.22370       -1.77280        2.72380
