22
TSA8_9_CH2F_CHF2_NH2
C          2.75010       -0.32050        1.08780
C          1.29400       -0.14750        1.64960
C          2.71930       -1.15040       -0.21270
H          3.16020        0.67280        0.79620
C          0.99130        1.31750        1.97780
C          3.62470       -0.92100        2.21070
C          3.04280       -2.25910        2.70730
C          1.50560       -2.24110        2.65560
O          1.02480       -0.92640        2.81840
N          5.03630       -1.04200        1.84490
H          3.55780       -0.20260        3.05850
H          3.39170       -3.14350        2.13140
H          1.10670       -2.89910        3.45460
H          1.11600       -2.66690        1.70460
F          3.96860       -1.19200       -0.80370
H          2.02760       -0.66730       -0.93540
H          2.36940       -2.18750       -0.05000
F         -0.32380        1.44020        2.38610
F          1.82270        1.76880        2.98800
H          1.13930        1.94730        1.07550
H          5.17200       -1.82370        1.16540
H          5.58860       -1.27340        2.70250
