23
TSA8_9_CF3_Me_CHF2
C          2.32800        0.24570       -2.37910
C          0.87770        0.55980       -1.87040
C          3.32400        0.37220       -1.20180
H          2.38280       -0.81750       -2.70670
C         -0.03600       -0.66100       -1.94800
C          2.61420        1.13200       -3.62630
C          2.32900        2.61820       -3.33870
C          1.10040        2.77700       -2.42940
O          0.26210        1.64860       -2.54870
C          3.97550        0.94060       -4.31400
H          1.84990        0.81520       -4.37260
H          3.17920        3.17610       -2.89110
H          0.55160        3.69940       -2.70980
H          1.39910        2.92310       -1.36530
F          4.57950       -0.06750       -1.57340
F          3.41910        1.67340       -0.74710
F          2.89890       -0.42710       -0.15440
H         -0.16370       -0.97420       -3.00660
H         -1.03060       -0.41160       -1.52320
H          0.39740       -1.50140       -1.36640
F          5.01430        1.42090       -3.53820
F          4.18710       -0.39640       -4.60030
H          3.98000        1.50830       -5.26880
