24
TSA8_9_Cl_OMe_Et
C          1.63590       -0.32190       -0.00160
C          1.73370       -0.69750       -1.29040
Cl         1.50450        1.37740        0.44210
H          1.63520       -1.04330        0.80520
O          1.86570       -2.00540       -1.65930
C          3.64990        1.53400       -4.72370
C          3.38760        0.55880       -3.84540
C          2.00540        0.04810       -3.58300
O          1.74400        0.26640       -2.24460
C          5.05300        2.03830       -4.91760
H          2.84650        1.97560       -5.30750
H          4.19730        0.11420       -3.27450
H          1.98780       -1.03140       -3.84480
H          1.23710        0.56040       -4.19930
C          2.20250       -3.06010       -0.84040
H          1.48290       -3.16700       -0.00290
H          3.23190       -2.90810       -0.44910
H          2.18690       -3.99600       -1.43560
C          5.58780        2.69240       -3.64260
H          5.05380        2.79860       -5.72830
H          5.71560        1.19700       -5.21890
H          4.93970        3.54820       -3.35390
H          6.61670        3.06980       -3.81810
H          5.62050        1.96750       -2.80250
