20
TSA8_9_F_Me_CH2F
C          2.10590        2.01630       -0.85160
C          0.91420        1.84320       -1.75920
F          1.84830        1.34370        0.33170
H          3.00380        1.55680       -1.32220
C          1.06040        1.15340       -3.08200
C          2.39640        3.50260       -0.54630
C          3.56060        3.59480        0.41410
C          3.43660        4.13960        1.62840
O         -0.18080        2.25810       -1.41120
C          2.73090        4.29250       -1.82200
H          1.48850        3.95300       -0.08480
H          4.52820        3.20410        0.11020
H          2.48760        4.53960        1.97200
H          4.29450        4.18630        2.29130
H          1.78820        1.70470       -3.71310
H          0.08500        1.11090       -3.61220
H          1.42520        0.11720       -2.92180
F          2.97030        5.62000       -1.51110
H          1.88290        4.25370       -2.53720
H          3.63110        3.87010       -2.31860
