20
TSA8_9_F_Me_CH2F
C          1.84270        0.12640       -0.07330
C          1.50660        1.07940       -0.97040
F          2.27070        0.40600        1.18410
H          1.74540       -0.92300       -0.33530
C          0.98590        0.67480       -2.32050
C          2.51130        5.13540       -1.21540
C          3.13640        4.16830       -0.52930
C          2.36470        3.10130        0.18860
O          1.58530        2.41920       -0.72960
C          3.28210        6.19230       -1.94430
H          1.42520        5.15890       -1.25440
H          4.22280        4.14510       -0.49260
H          1.70890        3.57300        0.95080
H          3.09920        2.44650        0.69320
H          1.65170        1.08840       -3.10650
H         -0.03340        1.09060       -2.46040
H          0.93720       -0.42820       -2.44530
F          4.05890        6.91140       -1.05420
H          2.57780        6.88450       -2.45120
H          3.93500        5.72180       -2.70960
