20
TSA8_9_F_Me_CH2F
C          2.95160        2.20080       -1.24450
C          1.67220        1.41990       -0.80110
F          3.96150        1.99290       -0.31840
H          3.32020        1.81910       -2.22150
C          0.87410        0.94860       -2.01680
C          2.60850        3.69640       -1.31110
C          2.14390        4.18350        0.07770
C          1.50060        3.04180        0.88620
O          0.78770        2.17160        0.03580
C          3.75380        4.55550       -1.86090
H          1.75030        3.80160       -2.01040
H          2.96870        4.59140        0.70350
H          0.82310        3.47130        1.65270
H          2.27020        2.46370        1.44810
H          0.52100        1.81310       -2.61800
H         -0.00690        0.36370       -1.67820
H          1.50190        0.29120       -2.65400
F          4.87170        4.47420       -1.04920
H          3.43130        5.61680       -1.92450
H          4.02580        4.21240       -2.88190
