21
TSA8_9_CHF2_Me_CN
C          1.59810       -0.02330       -0.03000
C          1.47080       -1.24810       -0.82150
C          1.67320        1.42990       -0.34090
H          1.48430       -0.17220        1.04060
C          1.73390       -2.51320       -0.03350
C          1.33480       -0.86460       -5.19560
C          1.50840       -0.39250       -3.95780
C          0.42210       -0.54190       -2.91360
O          0.76350       -1.54150       -2.00880
C          2.48190       -0.99400       -6.05840
H          0.37400       -1.25630       -5.51150
H          2.48220       -0.00690       -3.69050
H         -0.49630       -0.88850       -3.40460
H          0.09160        0.39110       -2.42840
F          2.98210        1.61540        0.06100
F          1.57440        1.80800       -1.66200
H          1.08450        2.14610        0.26480
H          2.30730       -3.28520       -0.59790
H          0.74910       -2.94640        0.18930
H          2.31480       -2.31250        0.89610
N          3.42610       -1.08220       -6.72140
