20
TSA8_9_Br_Cl_Et
C          1.99160       -0.34360       -0.08730
C          1.29650       -1.25830       -0.80010
Br         3.06410        1.11110       -0.73270
H          1.94370       -0.40040        0.99590
Cl         0.37460       -2.44870        0.10590
C          3.68540       -2.58560       -3.17470
C          3.42260       -1.27050       -3.06150
C          2.00760       -0.76230       -3.13610
O          1.22670       -1.35130       -2.16050
C          5.06130       -3.21210       -3.10510
H          2.85400       -3.26950       -3.32570
H          4.21660       -0.54790       -2.91480
H          1.59340       -1.03950       -4.12860
H          1.95680        0.34140       -3.06840
C          6.21600       -2.23720       -2.87380
H          5.24310       -3.75510       -4.05690
H          5.05900       -3.95100       -2.27590
H          6.27670       -1.50210       -3.70480
H          7.17190       -2.80110       -2.83440
H          6.08460       -1.70380       -1.90810
