20
TSA8_9_Br_Cl_Et
C          3.03760       -1.41580       -1.03550
C          1.50370       -1.13120       -1.03720
Br         3.98070        0.28900       -0.89190
H          3.30850       -1.98480       -0.11980
Cl         0.65660       -2.41640       -0.13320
C          3.36630       -2.22630       -2.30680
C          2.98130       -1.41810       -3.56200
C          1.77680       -0.49910       -3.28480
O          0.90740       -1.07780       -2.33660
C          4.77140       -2.87370       -2.38890
H          2.66900       -3.09450       -2.28020
H          3.79330       -0.77760       -3.96280
H          1.23700       -0.31380       -4.23600
H          2.09980        0.50290       -2.92670
C          5.96880       -1.92320       -2.43590
H          4.80240       -3.50250       -3.30590
H          4.90370       -3.54810       -1.51510
H          5.90850       -1.23420       -3.30170
H          6.89890       -2.52130       -2.53970
H          6.05950       -1.34790       -1.49610
