18
TSA8_9_H_OH_CHF2
C          1.89800        0.03310       -0.06430
C          1.55010        1.20040       -0.63080
H          2.18260       -0.04290        0.97860
H          1.89100       -0.87930       -0.65310
O          1.19480        1.20050       -1.93140
C          4.30850        3.61590        1.59510
C          3.54410        2.55480        1.29850
C          2.03860        2.63130        1.31640
O          1.52980        2.38030        0.05400
C          5.80510        3.53290        1.55660
H          3.84990        4.56290        1.86510
H          4.01730        1.61470        1.02860
H          1.71240        3.64920        1.61890
H          1.61660        1.91880        2.05700
H          0.94580        2.02080       -2.37890
F          6.25090        2.57860        2.45280
F          6.22580        3.20080        0.28160
H          6.23880        4.51730        1.83240
