25
TSA8_9_NO2_CBr3_Et
C          1.79530       -0.06660       -0.10170
C          1.47530       -0.72650       -1.25440
N          1.80850        1.35080        0.08000
H          2.03440       -0.64370        0.78090
C          1.37280       -2.24640       -1.30040
C          3.86780        0.37250       -4.54440
C          2.54350        0.39580       -4.32520
C          1.97500        0.89900       -3.02950
O          1.22890       -0.11020       -2.44700
C          4.45890       -0.14060       -5.82750
H          4.55120        0.73090       -3.77890
H          1.85630        0.04160       -5.08880
H          1.31550        1.76550       -3.24450
H          2.80380        1.22340       -2.36300
O          2.19240        1.79090        1.12020
O          1.19060        2.15660       -0.75400
Br         1.71440       -3.21420        0.35910
Br        -0.41740       -2.72470       -1.86870
Br         2.62400       -2.92340       -2.61760
C          5.39760       -1.30720       -5.54090
H          5.03180        0.67930       -6.31050
H          3.66590       -0.47730       -6.53060
H          6.21730       -0.98520       -4.86260
H          5.84500       -1.66920       -6.49020
H          4.83970       -2.14250       -5.06610
