25
TSA8_9_NO2_CBr3_Et
C          3.06740       -0.43440       -2.31600
C          1.60520       -0.91400       -2.52580
N          3.25510        0.33430       -1.08400
H          3.75250       -1.29720       -2.24900
C          1.14890       -2.20150       -1.80520
C          3.42240        0.44620       -3.55970
C          2.15890        1.17430       -4.10180
C          1.10620        1.37150       -2.99970
O          0.66540        0.15140       -2.39310
C          4.03590       -0.36390       -4.73210
H          4.18050        1.20400       -3.26440
H          1.64850        0.54360       -4.86500
H          0.22720        1.86960       -3.45970
H          1.50560        2.05650       -2.22360
O          4.34720        0.72500       -0.80050
O          2.25840        0.60240       -0.26760
Br         1.10570       -2.08100        0.12920
Br        -0.63840       -2.65210       -2.40450
Br         2.29090       -3.69150       -2.29790
C          5.40230       -0.98140       -4.41890
H          4.18900        0.32730       -5.59070
H          3.33570       -1.16670       -5.05240
H          6.12180       -0.19050       -4.11950
H          5.79030       -1.48510       -5.32930
H          5.34690       -1.74590       -3.62050
