18
TSA8_9_H_I_OMe
C          1.98710        0.29520        0.07560
C          1.45520        1.18190        0.93010
H          2.40140       -0.64990        0.40760
H          2.00620        0.50880       -0.98760
I          0.66120        2.98000        0.15940
C          4.19660        0.39710        4.13600
C          3.50380        0.18420        3.00060
C          2.00870       -0.01240        3.00910
O          1.38830        0.98530        2.27760
O          5.54340        0.59400        4.16800
H          3.66720        0.41950        5.08380
H          4.01550        0.15680        2.04530
H          1.62150        0.03570        4.04970
H          1.74260       -1.01280        2.60640
C          6.38180        0.63700        3.07250
H          7.42010        0.81920        3.41740
H          6.08380        1.46580        2.39480
H          6.35330       -0.33050        2.52750
