18
TSA8_9_H_I_OMe
C          3.37960        0.93540        1.25540
C          1.83030        0.89400        1.14730
H          3.78680       -0.03240        0.89200
H          3.78900        1.74000        0.60900
I          1.05920        2.88910        1.01730
C          3.75720        1.12280        2.73830
C          3.17160       -0.01790        3.59570
C          1.98250       -0.69120        2.88600
O          1.16500        0.26580        2.24630
O          5.13530        1.34870        3.01090
H          3.23130        2.05000        3.05170
H          3.90410       -0.81700        3.83430
H          1.38810       -1.25830        3.63170
H          2.33560       -1.43800        2.13790
C          5.98780        0.45480        2.32460
H          6.98460        0.48390        2.81050
H          6.12230        0.77840        1.27040
H          5.64350       -0.59990        2.38000
