23
TSA8_9_H_CHF2_Et
C          2.90860       -1.07040       -0.28290
C          2.14690       -1.73040        0.84620
H          2.16810       -0.66620       -1.00500
H          3.46920       -0.19470        0.10370
C          2.26180       -1.21710        2.25440
C          3.88560       -2.02590       -1.02500
C          3.14810       -3.19210       -1.65670
C          2.20040       -3.01740       -2.58440
O          1.40260       -2.66990        0.60730
C          5.01430       -2.56280       -0.11020
H          4.36900       -1.45920       -1.85190
H          3.39570       -4.20910       -1.36280
H          1.69920       -3.87800       -3.01470
H          1.91970       -2.02570       -2.92330
F          1.44330       -1.93990        3.10510
F          3.56740       -1.32640        2.69230
H          1.95390       -0.15110        2.28450
C          5.95670       -1.46840        0.39760
H          5.63770       -3.27140       -0.69930
H          4.58490       -3.11840        0.75130
H          6.41790       -0.93260       -0.45920
H          6.76610       -1.93170        1.00010
H          5.43120       -0.73750        1.04180
