18
TSA8_9_Cl_OH_CF3
C          1.51730       -1.81610       -1.10330
C          2.55020       -1.39370       -0.07050
Cl         0.78180       -0.36700       -1.87140
H          0.68180       -2.31480       -0.56680
O          3.01930       -2.26590        0.84650
C          2.04800       -2.75070       -2.23120
C          3.16800       -2.08020       -3.00040
C          3.05730       -1.77060       -4.29550
O          2.92070       -0.23210       -0.01150
C          2.51000       -4.14580       -1.76490
H          1.18050       -2.93200       -2.90660
H          4.09340       -1.84170       -2.48350
H          2.15110       -1.98940       -4.85120
H          3.88410       -1.29000       -4.80840
H          2.67510       -3.16480        0.92590
F          3.67100       -4.07900       -1.01730
F          1.51440       -4.75410       -1.02120
F          2.76590       -4.93360       -2.87420
