18
TSA8_9_Cl_OH_CF3
C          1.60910       -0.09060        0.10420
C          1.86500       -1.15450       -0.66500
Cl         1.16400        1.46160       -0.60070
H          1.70970       -0.15420        1.18170
O          2.24610       -2.32900       -0.10680
C          2.33900       -3.92830       -2.88220
C          3.15180       -2.87110       -2.76540
C          2.68050       -1.45340       -2.93860
O          1.73200       -1.05730       -2.01270
C          2.87850       -5.32030       -2.71290
H          1.28620       -3.78510       -3.10700
H          4.20540       -3.02800       -2.54610
H          2.26360       -1.32250       -3.95960
H          3.55880       -0.78070       -2.84010
H          2.32200       -2.44860        0.85010
F          3.40960       -5.46760       -1.44390
F          1.86380       -6.24240       -2.88750
F          3.86800       -5.55700       -3.65150
