18
TSA8_9_Cl_OH_CF3
C          1.43770       -2.11970       -1.18140
C          2.61170       -1.26830       -0.66910
Cl         0.15270       -0.98710       -1.70920
H          0.97370       -2.71320       -0.36500
O          3.60140       -2.05000       -0.06820
C          1.88480       -3.02790       -2.36230
C          3.13820       -2.45460       -3.06090
C          3.14070       -0.92310       -2.98930
O          3.18440       -0.40950       -1.65570
C          2.13930       -4.48800       -1.93400
H          1.04670       -3.06800       -3.09230
H          4.06640       -2.78310       -2.54360
H          2.25610       -0.51490       -3.52200
H          4.04500       -0.56680       -3.52500
H          3.57130       -1.79870        0.88930
F          3.15370       -4.56750       -0.99680
F          0.98680       -5.02550       -1.38790
F          2.49150       -5.24480       -3.03820
