16
TSA8_9_Cl_Br_NH2
C          2.92330       -0.18800       -1.65620
C          1.44530       -0.11760       -1.37050
Cl         3.83230       -0.00090       -0.12420
H          3.14400       -1.20270       -2.05150
Br         0.32710       -1.62540       -1.73710
C          3.35620        0.83960       -2.73000
C          3.17460        2.27100       -2.26390
C          2.35340        3.12170       -2.88630
O          0.94610        0.89110       -0.89650
N          4.75310        0.61430       -3.10760
H          2.73210        0.64990       -3.63360
H          3.73070        2.62040       -1.39870
H          1.77780        2.81580       -3.75440
H          2.25220        4.13890       -2.52270
H          5.39090        0.82550       -2.30610
H          5.00370        1.24670       -3.90220
