16
TSA8_9_Cl_Br_NH2
C          2.01750       -0.13230       -0.34140
C          1.37070       -0.02580       -1.52220
Cl         2.91280        1.13130        0.49550
H          1.98370       -1.08550        0.17640
Br         0.45160       -1.57810       -2.16020
C          3.83360        1.42020       -3.75190
C          3.47660        1.99010       -2.59250
C          2.02990        2.25580       -2.27360
O          1.29700        1.08460       -2.31420
N          5.19410        1.16490       -4.05250
H          3.07350        1.14350       -4.47760
H          4.23660        2.26770       -1.86800
H          1.62810        2.94510       -3.04580
H          1.90840        2.76520       -1.29710
H          5.94300        1.40910       -3.38800
H          5.44360        0.72230       -4.94840
