21
TSA8_9_CN_OMe_NH2
C          2.81430        0.57270        0.91020
C          1.41610        1.25050        0.87310
C          2.57040       -0.88600        0.95090
H          3.36870        0.79090       -0.02600
O          1.27980        2.15410       -0.21670
C          3.53230        1.14120        2.14870
C          2.76180        0.72980        3.40840
C          1.24150        0.87420        3.17710
O          0.95390        1.78160        2.12480
N          4.96060        0.83450        2.22510
H          3.46330        2.24410        2.06640
H          2.96160       -0.33610        3.67440
H          0.79630        1.23580        4.12490
H          0.76540       -0.11180        2.96390
N          2.36240       -2.02420        1.01050
C          1.51200        3.49910        0.15000
H          1.83840        4.05990       -0.75070
H          2.32440        3.62910        0.88970
H          0.57040        3.95500        0.52080
H          5.13180       -0.07790        2.70100
H          5.41410        1.58040        2.80710
