24
TSA8_9_CCl3_CCl3_OMe
C          2.13870       -0.31770        0.09010
C          1.98510       -0.26990        1.45040
C          1.78500       -1.34000       -0.97840
H          2.64060        0.54380       -0.34360
C          2.60070        0.91850        2.17900
C         -0.30970       -4.37300        2.43520
C          0.60100       -3.38540        2.45860
C          0.25040       -1.98370        2.04110
O          1.34080       -1.16720        2.25280
O         -0.06310       -5.65640        2.82840
H         -1.31100       -4.14560        2.07930
H          1.61770       -3.56390        2.78700
H         -0.56420       -1.63410        2.71040
H         -0.13940       -1.91020        1.00890
Cl         1.62290       -3.04110       -0.48300
Cl         0.34940       -0.79640       -1.87650
Cl         3.13970       -1.36490       -2.13850
Cl         2.34060        0.83090        3.94710
Cl         4.36520        0.96460        1.90600
Cl         1.87960        2.44860        1.60910
C          1.01910       -6.14010        3.54810
H          0.63940       -6.67840        4.44080
H          1.70070       -5.35120        3.91540
H          1.58980       -6.85520        2.92110
