24
TSA8_9_CCl3_CCl3_OMe
C          1.33620       -1.90280        1.02500
C          2.00500       -0.99250        2.13420
C          2.12080       -2.28920       -0.28440
H          0.45640       -1.32500        0.66590
C          2.79670        0.28420        1.74070
C          0.78570       -3.17960        1.75810
C          0.22510       -2.85160        3.15350
C         -0.11120       -1.37610        3.25440
O          1.05490       -0.57580        3.13020
O          1.80410       -4.15910        1.88880
H         -0.04730       -3.54620        1.11480
H          1.00150       -3.03280        3.93120
H         -0.54400       -1.19830        4.26050
H         -0.87830       -1.07750        2.50820
Cl         3.69820       -3.06830        0.03870
Cl         1.16800       -3.42940       -1.28160
Cl         2.37010       -0.89790       -1.37230
Cl         3.31290        1.12700        3.23030
Cl         4.32350       -0.04020        0.88350
Cl         1.77910        1.42690        0.82200
C          1.25500       -5.43620        2.14140
H          0.42600       -5.69400        1.44580
H          0.93360       -5.52140        3.20160
H          2.04740       -6.19370        1.97060
