20
TSA8_9_CHF2_NO2_CN
C          2.20770        1.47320       -1.12250
C          0.95560        0.60030       -1.48020
C          2.30780        1.65630        0.41750
H          3.11470        0.89250       -1.40320
N          1.36100       -0.50070       -2.33710
C          2.13110        2.75370       -1.99330
C          0.83100        3.52790       -1.71400
C         -0.32030        2.54870       -1.41970
O         -0.10740        1.33230       -2.10030
C          3.30710        3.63100       -1.99070
H          2.04930        2.39420       -3.04190
H          0.89430        4.25860       -0.87690
H         -1.28000        3.00480       -1.73670
H         -0.42880        2.35010       -0.32920
F          3.63040        1.76000        0.80610
F          1.62070        2.75510        0.89470
H          1.89770        0.75030        0.91900
O          0.92590       -0.60770       -3.44380
O          2.22810       -1.38740       -1.89550
N          4.21450        4.34860       -2.02220
