14
TSA8_9_Br_F_F
C          2.99320       -1.49010        0.20830
C          1.68780       -1.55160        0.96100
Br         3.03230        0.09520       -0.92100
H          3.76670       -1.34600        0.99300
F          1.30150       -0.47750        1.69810
C          3.38660       -2.75150       -0.60370
C          2.63660       -2.94540       -1.90900
C          1.33510       -3.22840       -2.01890
O          1.00740       -2.56230        0.99200
F          4.72720       -2.62300       -0.92860
H          3.29350       -3.65970        0.03000
H          3.20670       -2.86730       -2.83100
H          0.68700       -3.35380       -1.16840
H          0.89880       -3.35700       -3.00430
