14
TSA8_9_Br_F_F
C          2.81170       -1.41620        0.03420
C          1.37080       -1.66760        0.56360
Br         2.80380       -0.18560       -1.47880
H          3.41130       -0.90820        0.82030
F          1.43220       -1.82140        1.93750
C          3.43220       -2.76320       -0.33560
C          2.58590       -3.47270       -1.40370
C          1.10280       -3.07270       -1.30160
O          0.73580       -2.83750        0.03940
F          4.74120       -2.62660       -0.76300
H          3.42470       -3.39240        0.58130
H          2.92000       -3.24630       -2.43920
H          0.47830       -3.88140       -1.73390
H          0.88120       -2.16740       -1.90860
