16
TSA8_9_I_NO2_H
C          2.87820       -0.07770       -1.43170
C          1.44820       -0.33000       -1.87650
I          2.89720        0.51230        0.63300
H          3.44730       -1.02910       -1.47410
N          1.05090       -1.54940       -2.34170
C          3.67750        0.91830       -2.30400
C          3.21950        2.35750       -2.27910
C          2.11270        2.79170       -2.88750
O          0.62830        0.57190       -1.78150
H          4.71250        0.91130       -1.89850
H          3.73500        0.56130       -3.35530
H          3.84770        3.08630       -1.77450
H          1.47110        2.12170       -3.44660
H          1.85360        3.84490       -2.84620
O         -0.08460       -1.72490       -2.66920
O          1.90410       -2.54670       -2.44180
