22
TSA8_9_NH2_Et_H
C          1.85800       -0.19830       -0.02590
C          1.45080       -0.96580       -1.07890
N          2.16490        1.18860       -0.04260
H          1.95230       -0.67980        0.94350
C          1.14790       -2.42460       -0.81640
C          3.81640        0.59900       -4.29490
C          3.14920        0.65660       -3.13840
C          1.64530        0.55380       -3.07910
O          1.26980       -0.57250       -2.37740
H          4.89920        0.66910       -4.29910
H          3.29710        0.47850       -5.24060
H          3.71640        0.77100       -2.22110
H          1.23830        0.45070       -4.10790
H          1.16460        1.46150       -2.67080
H          2.09930        1.79340       -0.86070
H          2.45620        1.63630        0.83870
C          2.05630       -3.32010       -1.65510
H          0.08840       -2.62500       -1.08370
H          1.28550       -2.69610        0.25340
H          1.91140       -3.11890       -2.73840
H          1.81410       -4.38560       -1.45980
H          3.12050       -3.14020       -1.39130
