22
TSA8_9_NH2_Et_H
C          2.81930       -0.22990       -1.13450
C          1.37140       -0.76140       -1.40880
N          2.77990        0.96980       -0.29620
H          3.42470       -0.98550       -0.58820
C          1.15200       -2.21100       -0.95040
C          3.51040        0.05980       -2.47430
C          2.66520        0.99870       -3.34730
C          1.16270        0.71840       -3.17000
O          0.95920       -0.61820       -2.76680
H          4.54240        0.44980       -2.34970
H          3.58310       -0.90850       -3.01610
H          2.84890        2.07510       -3.14130
H          0.63570        0.91980       -4.12520
H          0.70610        1.41270       -2.42660
H          2.20330        1.72470       -0.72880
H          2.35960        0.72820        0.62980
C          1.98320       -3.22060       -1.74570
H          0.07660       -2.45910       -1.07910
H          1.39680       -2.29750        0.12990
H          1.73530       -3.16330       -2.82660
H          1.76070       -4.24690       -1.38580
H          3.06920       -3.03680       -1.61390
