17
TSA8_9_CBr3_I_I
C          1.82310       -0.00500       -0.00860
C          1.14600       -1.09590       -0.41480
C          2.15290        1.24090       -0.80910
H          2.17990       -0.00290        1.01750
I          0.86810       -2.65450        1.01280
C         -0.07630       -2.88190       -4.53550
C         -0.44180       -2.02940       -3.57260
C         -0.09310       -2.26330       -2.13230
O          0.65730       -1.20280       -1.67410
I         -0.58900       -2.50780       -6.54800
H          0.48880       -3.77980       -4.30480
H         -1.00740       -1.13980       -3.83330
H          0.48200       -3.20830       -2.01360
H         -1.03460       -2.33600       -1.54670
Br         1.38810        2.76180        0.11170
Br         4.07640        1.45300       -0.82820
Br         1.54400        1.32230       -2.65740
