18
TSA8_9_I_CBr3_CN
C          2.60750       -2.07400       -0.36480
C          1.35970       -1.69370        0.49250
I          2.74750       -0.57840       -1.91870
H          3.55700       -1.98060        0.19090
C          1.56480       -1.51430        2.02040
C          2.41300       -3.50710       -0.87110
C          1.16940       -3.55310       -1.75640
C          0.01390       -2.75910       -1.11780
O          0.22230       -2.53580        0.26380
C          3.57340       -4.11260       -1.54000
H          2.22960       -4.14080        0.02160
H          1.35630       -3.12990       -2.77280
H         -0.90650       -3.36190       -1.26400
H         -0.15690       -1.78530       -1.62550
Br         0.28330       -0.18960        2.60480
Br         1.22610       -3.15040        3.01630
Br         3.31200       -0.84430        2.55960
N          4.46270       -4.62910       -2.07190
