18
TSA8_9_NH2_Br_NO2
C          1.58630       -2.44910        0.04360
C          1.17720       -1.29280        0.97870
N          1.39140       -2.05290       -1.35550
H          2.66720       -2.67310        0.18140
Br         1.86050       -1.45020        2.80050
C          0.76150       -3.70470        0.41240
C         -0.73430       -3.36680        0.42400
C         -0.96400       -2.16400        1.34890
O         -0.21870       -1.02860        0.93170
N          1.03850       -4.82090       -0.47440
H          1.03920       -3.99920        1.44980
H         -1.09960       -3.12610       -0.59670
H         -0.73580       -2.42800        2.40430
H         -2.04330       -1.90730        1.32110
H          2.03390       -1.25750       -1.57700
H          0.41330       -1.73080       -1.52930
O          0.78910       -4.75200       -1.64050
O          1.55030       -5.93150        0.01130
