20
TSA8_9_Me_CF3_Cl
C          2.62590       -1.42460        0.49780
C          1.36970       -1.47900        1.34820
C          2.29920       -0.78890       -0.85980
H          3.35920       -0.74290        0.98430
C          1.26770       -0.67410        2.61580
C          3.32610       -2.81310        0.38930
C          2.49280       -3.92660       -0.21290
C          2.14640       -3.96880       -1.50310
O          0.42380       -2.16820        0.99380
Cl         3.84980       -3.32700        2.02240
H          4.25800       -2.71110       -0.20830
H          2.18610       -4.75540        0.41930
H          1.56160       -4.80280       -1.87690
H          2.45240       -3.20000       -2.20200
H          1.50980       -1.34860       -1.39880
H          3.21380       -0.73030       -1.48730
H          1.91950        0.24410       -0.70530
F          0.03590       -0.86870        3.21660
F          2.26000       -1.05790        3.49780
F          1.41490        0.66890        2.32280
