23
TSA8_9_CF3_NO2_OMe
C          2.40950       -1.81630        0.70200
C          1.57970       -0.74550        1.41220
C          2.50310       -1.41760       -0.80150
H          3.43740       -1.79630        1.12030
N          2.11920        0.05400        2.37680
C          1.81730       -3.23280        1.05100
C          0.53200       -3.58250        0.31920
C         -0.63680       -3.72310        0.95330
O          0.40160       -0.60750        1.10600
O          2.75260       -4.30720        1.05460
H          1.56910       -3.15620        2.13470
H          0.54640       -3.72680       -0.75560
H         -0.71710       -3.59090        2.02750
H         -1.53020       -3.97360        0.39010
F          3.32050       -2.24800       -1.53250
F          1.25210       -1.40020       -1.39330
F          3.03620       -0.14300       -0.89420
O          1.44580        0.88140        2.91540
O          3.38130       -0.06730        2.73060
C          3.32590       -4.61590       -0.19180
H          3.63330       -5.68120       -0.16880
H          4.25280       -4.02430       -0.33520
H          2.61990       -4.53130       -1.04180
