23
TSA8_9_CF3_NO2_OMe
C          2.03700       -0.25810        0.00880
C          1.63860       -0.57880        1.28370
C          1.74820       -0.80160       -1.37710
H          2.71290        0.58640       -0.07980
N          2.13140        0.22930        2.36120
C          1.38280       -4.92840        1.25130
C          1.35400       -3.69380        0.71090
C          0.26580       -2.70900        1.06470
O          0.79810       -1.59150        1.66900
O          2.34270       -5.85220        0.97210
H          0.60460       -5.21960        1.95020
H          2.12300       -3.38660        0.01230
H         -0.42800       -3.17410        1.79730
H         -0.38400       -2.43470        0.21850
F          2.94520       -1.18530       -1.95090
F          0.88730       -1.86080       -1.45540
F          1.21300        0.22350       -2.13480
O          1.80440       -0.02050        3.48270
O          2.94350        1.24430        2.14930
C          3.41950       -5.67500        0.12810
H          4.01980       -6.60760        0.10800
H          4.06230       -4.84740        0.49660
H          3.06800       -5.45720       -0.90290
