17
TSA8_9_CF3_Br_Cl
C          1.55060       -1.57420        0.60140
C          0.64990       -0.38530        0.85730
C          1.60220       -1.88240       -0.91600
H          2.57950       -1.28030        0.90570
Br         1.37390        1.22560        1.59070
C          1.14680       -2.76880        1.51540
C         -0.22790       -3.32580        1.22880
C         -1.20740       -3.29170        2.13810
O         -0.54260       -0.43340        0.59750
Cl         2.33090       -4.10300        1.42020
H          1.18960       -2.40140        2.56590
H         -0.43290       -3.77750        0.26420
H         -1.05040       -2.85460        3.11940
H         -2.18200       -3.70520        1.90060
F          2.48190       -2.91490       -1.18100
F          0.35500       -2.21810       -1.41050
F          2.04780       -0.76050       -1.59400
