17
TSA8_9_CF3_Br_Cl
C          1.70710       -1.74750        0.68770
C          0.69170       -0.69970        1.18680
C          1.65800       -1.81550       -0.86120
H          2.73420       -1.40770        0.94620
Br         1.04650       -0.02340        2.98450
C          1.42540       -3.07720        1.43350
C         -0.04460       -3.47420        1.30100
C         -0.92050       -2.29860        1.75430
O         -0.65420       -1.12040        1.00630
Cl         2.49120       -4.42000        0.93430
H          1.62090       -2.91300        2.51560
H         -0.29170       -3.75900        0.25890
H         -0.80040       -2.11550        2.84390
H         -1.98330       -2.58010        1.60470
F          2.60380       -2.70080       -1.34300
F          0.41390       -2.19000       -1.33250
F          1.95140       -0.56480       -1.37590
