20
TSA8_9_CCl3_CBr3_F
C          0.93530        0.26840        1.28590
C          2.10760        1.26950        1.25180
C          1.28900       -1.16800        0.78250
H          0.23740        0.63360        0.49730
C          3.34120        1.36650        2.15000
C          0.09870        0.30450        2.59930
C         -0.32290        1.70370        2.97690
C         -1.10620        2.44920        2.19060
O          2.03870        2.12280        0.37640
F          0.78200       -0.25460        3.65660
H         -0.82490       -0.29730        2.46650
H          0.01080        2.11660        3.92470
H         -1.39190        3.44880        2.50110
H         -1.47270        2.07310        1.24070
Cl         2.30010       -2.14120        1.87450
Cl        -0.20540       -2.10740        0.50180
Cl         2.12970       -1.07710       -0.79140
Br         3.56960        0.16310        3.65060
Br         4.91940        1.16450        1.04170
Br         3.38400        3.14580        2.92240
