18
TSA8_9_CHF2_CN_I
C          1.73660       -0.01840        0.10560
C          1.44990       -1.05610        0.91890
C          1.81970       -0.13390       -1.40220
H          1.88700        0.96890        0.53230
C          1.31510       -0.83950        2.35190
C         -0.13960       -5.44380        0.42880
C          0.11940       -4.26830       -0.14400
C          0.11840       -3.00310        0.65130
O          1.25920       -2.28450        0.39870
I         -0.24500       -7.19490       -0.73880
H         -0.34320       -5.50820        1.49320
H          0.28980       -4.21310       -1.21620
H         -0.00820       -3.18460        1.74080
H         -0.74020       -2.41010        0.28260
F          3.12360        0.08420       -1.80020
F          1.40210       -1.36090       -1.88730
H          1.16280        0.63600       -1.86020
N          1.20920       -0.66690        3.48170
