20
TSA8_9_CBr3_CH2F_F
C          1.41320       -0.68710        1.48410
C          2.81070       -0.46690        2.06530
C          1.43450       -0.90890       -0.06970
H          0.87180        0.27150        1.64740
C          3.89550       -1.51490        2.05810
C          0.67260       -1.77870        2.31910
C         -0.80130       -1.90010        2.03020
C         -1.65360       -0.89180        2.24280
O          3.05860        0.61780        2.57340
F          1.25790       -3.01910        2.14160
H          0.76190       -1.51950        3.39770
H         -1.18870       -2.84230        1.65320
H         -1.31100        0.06210        2.63020
H         -2.70960       -1.02200        2.02920
Br        -0.33130       -0.75910       -0.86760
Br         2.48520        0.48400       -0.93120
Br         2.15150       -2.62450       -0.64570
F          5.03750       -1.03590        2.67680
H          4.16430       -1.78430        1.02010
H          3.56410       -2.42000        2.60340
