20
TSA8_9_CBr3_CH2F_F
C          1.39360       -0.40050        0.06360
C          1.95730       -0.94790        1.17450
C          2.01920       -0.29120       -1.31180
H          0.39930        0.01870        0.15770
C          3.34380       -1.53510        1.20940
C         -1.04170       -1.75760        4.71030
C         -0.37580       -2.07470        3.59470
C         -0.09040       -1.06170        2.52590
O          1.28130       -0.98150        2.35820
F         -1.27070       -2.70650        5.65600
H         -1.40650       -0.74960        4.87710
H         -0.02650       -3.09340        3.45590
H         -0.48550       -0.06130        2.80520
H         -0.59250       -1.40230        1.59570
Br         0.78140        0.60320       -2.50950
Br         3.64110        0.77870       -1.28630
Br         2.36840       -2.04570       -2.06660
F          4.10810       -0.84590        2.13330
H          3.86880       -1.51330        0.24020
H          3.27120       -2.59630        1.52330
