17
TSA8_9_I_H_CH2F
C          1.96170       -0.23950       -0.22580
C          1.18190       -0.88260       -1.11950
I          3.31290        1.37610       -0.49340
H          1.89180       -0.55870        0.80980
H          0.53980       -1.66350       -0.72480
C          3.25160       -2.03540       -3.88220
C          3.25300       -0.77260       -3.43040
C          1.96720        0.00040       -3.30660
O          1.09080       -0.65210       -2.46120
C          4.51630       -2.82490       -4.01880
H          2.31260       -2.50770       -4.16320
H          4.18910       -0.29450       -3.15220
H          1.50510        0.05550       -4.31440
H          2.13260        1.04220       -2.98120
F          5.37520       -2.19620       -4.90220
H          4.28030       -3.83840       -4.40650
H          5.00910       -2.92570       -3.02950
