21
TSA8_9_OMe_Cl_CH2F
C          0.50710       -1.47140       -0.83390
C          1.29690       -1.11630        0.40600
O          1.32670       -1.33400       -1.98350
H         -0.39600       -0.81850       -0.90340
Cl         0.75380        0.18340        1.45530
C          0.00080       -2.93390       -0.75110
C         -0.88730       -3.12190        0.46120
C         -0.57820       -3.97760        1.44030
O          2.31860       -1.72310        0.68350
C         -0.78160       -3.33180       -2.01290
H          0.88580       -3.60790       -0.68320
H         -1.80290       -2.54220        0.54110
H          0.32790       -4.57420        1.40110
H         -1.23830       -4.08410        2.29480
C          1.47540        0.02640       -2.33360
H          1.99130        0.07910       -3.31380
H          2.11320        0.55880       -1.59490
H          0.49480        0.53510       -2.46630
F         -1.89740       -2.52940       -2.17990
H         -1.10910       -4.39120       -1.93500
H         -0.13730       -3.24260       -2.91300
