21
TSA8_9_OMe_Cl_CH2F
C          1.49240        0.20570       -0.01400
C          1.05980       -0.79590        0.75340
O          1.71610       -0.00660       -1.33230
H          1.63370        1.19490        0.41610
Cl         0.72160       -0.49640        2.46020
C         -0.86130       -4.64960       -0.97930
C         -0.84730       -3.40500       -0.48400
C          0.04480       -3.00950        0.65470
O          0.88130       -2.01770        0.19080
C         -1.72770       -5.00180       -2.14940
H         -0.23080       -5.42050       -0.54540
H         -1.48080       -2.64100       -0.92760
H          0.65650       -3.86900        1.00360
H         -0.58780       -2.65960        1.49830
C          2.01290        1.01220       -2.20580
H          2.14070        0.58940       -3.22320
H          2.95180        1.52010       -1.90120
H          1.17730        1.74520       -2.22840
F         -3.05680       -4.76830       -1.84770
H         -1.59420       -6.07350       -2.40470
H         -1.43510       -4.38680       -3.02730
