21
TSA8_9_OMe_Cl_CH2F
C          0.33130       -1.46310       -1.02860
C          0.94110       -1.13700        0.36210
O          1.26340       -1.24250       -2.07410
H         -0.57550       -0.82930       -1.17240
Cl        -0.00120        0.04940        1.31550
C         -0.12880       -2.93710       -1.06920
C         -0.86140       -3.22410        0.23690
C          0.16050       -3.11590        1.38980
O          1.28340       -2.27890        1.12470
C         -1.00150       -3.24530       -2.29380
H          0.76140       -3.60820       -1.11530
H         -1.67260       -2.47100        0.35620
H          0.56960       -4.13810        1.52160
H         -0.34150       -2.83940        2.34320
C          1.54260        0.13610       -2.21120
H          1.96000        0.31010       -3.22390
H          2.30690        0.45030       -1.46760
H          0.63460        0.77650       -2.13920
F         -2.14940       -2.47120       -2.29510
H         -1.29230       -4.31770       -2.28420
H         -0.43140       -3.04950       -3.22750
