22
TSA8_9_CF3_NO2_CF3
C          2.01320       -1.47270       -1.64940
C          0.67640       -2.16720       -1.41190
C          1.86800        0.01900       -1.25270
H          2.78370       -1.91320       -0.98160
N          0.54820       -3.17690       -0.50340
C          2.49800       -1.66060       -3.12720
C          3.86440       -1.03260       -3.31320
C          4.08090       -0.03620       -4.17700
O         -0.30070       -1.80720       -2.05620
C          2.60240       -3.14770       -3.54430
H          1.76250       -1.17540       -3.80860
H          4.69900       -1.40570       -2.72530
H          3.27710        0.36740       -4.78410
H          5.07660        0.38340       -4.27820
F          3.08110        0.67800       -1.32700
F          0.96220        0.66050       -2.08130
F          1.41790        0.11140        0.05340
O         -0.51080       -3.70440       -0.33900
O          1.58100       -3.58630        0.20250
F          3.46730       -3.82970       -2.70530
F          1.36550       -3.76570       -3.51030
F          3.07840       -3.23530       -4.84170
