24
TSA8_9_OMe_CH2F_CCl3
C          0.80490       -0.58060       -1.64580
C          1.43140       -1.43420       -0.56070
O          1.83130        0.17040       -2.27150
H          0.02590        0.08000       -1.19200
C          1.00970       -1.28800        0.87120
C          0.07890       -1.47490       -2.69740
C         -1.00810       -2.27100       -1.99420
C         -0.99060       -3.60620       -1.93960
O          2.29990       -2.24360       -0.85300
C         -0.54650       -0.67940       -3.88570
H          0.82820       -2.17410       -3.13420
H         -1.82690       -1.74080       -1.51620
H         -0.19180       -4.17780       -2.40070
H         -1.78590       -4.13620       -1.42560
C          2.01890        1.40450       -1.61190
H          2.83050        1.95660       -2.12770
H          2.34120        1.25340       -0.55850
H          1.10660        2.03860       -1.67380
F         -0.33570       -1.57730        0.99780
H          1.19480       -0.24780        1.21030
H          1.58780       -1.98110        1.51940
Cl         0.69220        0.14570       -4.87400
Cl        -1.39210       -1.79480       -4.99890
Cl        -1.72630        0.54620       -3.33470
