24
TSA8_9_OMe_CH2F_CCl3
C          1.53620        0.02010        0.07910
C          1.32070       -1.29350       -0.06530
O          1.59290        0.81250       -1.01770
H          1.63890        0.45640        1.06990
C          1.22960       -2.20070        1.14040
C         -0.41930       -2.36490       -4.23650
C         -0.34940       -1.73810       -3.04990
C          0.08700       -2.44820       -1.80170
O          1.20090       -1.79440       -1.31970
C         -0.81430       -1.70180       -5.53790
H         -0.17340       -3.42280       -4.28450
H         -0.59170       -0.68490       -2.95570
H          0.34320       -3.51010       -2.00450
H         -0.75230       -2.41540       -1.07460
C          1.69170        2.18200       -0.93700
H          1.71390        2.60460       -1.96260
H          2.62310        2.46990       -0.40510
H          0.80920        2.59460       -0.40220
F         -0.00260       -2.82160        1.19820
H          1.37990       -1.63820        2.08680
H          2.02300       -2.97380        1.06960
Cl         0.50800       -1.92550       -6.70780
Cl        -2.27240       -2.49970       -6.17010
Cl        -1.14690        0.05290       -5.41480
