24
TSA8_9_OMe_CH2F_CCl3
C          0.89400       -0.80390       -1.73780
C          1.36160       -1.90130       -0.73210
O          1.96190        0.11200       -1.91470
H         -0.04860       -0.32670       -1.36760
C          1.42600       -1.42720        0.71960
C          0.53950       -1.52030       -3.06590
C         -0.58780       -2.55150       -2.78880
C         -0.59560       -3.03430       -1.33020
O          0.72040       -3.17130       -0.84540
C          0.16620       -0.59370       -4.26060
H          1.44210       -2.10030       -3.36390
H         -1.60910       -2.16490       -2.99620
H         -1.12750       -4.00600       -1.26910
H         -1.16470       -2.32890       -0.68260
C          1.61400        1.39730       -1.44570
H          0.85570        1.86610       -2.10970
H          2.52100        2.03440       -1.46690
H          1.26240        1.37380       -0.39060
F          0.16100       -1.12700        1.19040
H          2.07200       -0.53020        0.80350
H          1.86650       -2.22850        1.34910
Cl         1.53260        0.44430       -4.75510
Cl        -0.25420       -1.57370       -5.69480
Cl        -1.22700        0.45920       -3.87830
