20
TSA8_9_Br_CCl3_CBr3
C          2.81490       -1.99890        0.03070
C          1.52880       -2.51230        0.65590
Br         2.39380       -0.34560       -0.91120
H          3.51220       -1.69870        0.84020
C          1.30330       -2.46490        2.15850
C          3.56370       -2.96780       -0.94500
C          2.69780       -3.32540       -2.14210
C          3.00960       -2.94120       -3.38390
O          0.62350       -2.89210       -0.07250
C          4.15260       -4.25740       -0.30330
H          4.44480       -2.38890       -1.30430
H          1.79920       -3.91600       -2.00080
H          2.36790       -3.21900       -4.21390
H          3.89840       -2.35130       -3.58550
Cl         2.50600       -3.42860        3.04590
Cl         1.41160       -0.77870        2.72460
Cl        -0.31520       -3.08250        2.59980
Br         5.22290       -5.21570       -1.61540
Br         5.36980       -3.83350        1.15100
Br         2.80800       -5.51200        0.33400
