16
TSA8_9_NH2_Br_Br
C          2.01600       -0.12980        0.14630
C          1.23470       -0.70950        1.06820
N          2.31120       -0.76000       -1.09020
H          2.43630        0.85130        0.34520
Br         0.89740        0.24010        2.70860
C         -0.25940       -5.07350        1.71790
C         -0.53020       -3.91290        1.11150
C         -0.13640       -2.59410        1.70900
O          0.70050       -1.93580        0.83450
Br        -0.78120       -6.72820        0.91550
H          0.25890       -5.09950        2.67160
H         -1.05040       -3.91640        0.15810
H          0.38020       -2.73810        2.68420
H         -1.05590       -1.99190        1.87380
H          2.91430       -0.28040       -1.77360
H          1.93500       -1.68960       -1.32740
