16
TSA8_9_NH2_Br_Br
C          1.76660       -2.06840        0.52970
C          1.08160       -0.87270        1.22270
N          1.58870       -1.97940       -0.92250
H          2.85960       -2.04220        0.73490
Br         1.67720       -0.55550        3.05380
C          1.18380       -3.37850        1.09320
C         -0.34290       -3.35800        1.01010
C         -0.85750       -2.09120        1.70460
O         -0.33450       -0.91550        1.10320
Br         1.90030       -4.93810        0.18490
H          1.46240       -3.46210        2.16620
H         -0.68590       -3.37160       -0.04600
H         -0.63380       -2.11970        2.79320
H         -1.96360       -2.07150        1.61710
H          2.08450       -1.12900       -1.27470
H          0.58100       -1.89200       -1.18160
