17
TSA8_9_I_CF3_Br
C          3.10930       -1.51920        0.45730
C          1.62480       -1.57450        0.73910
I          3.54760        0.30090       -0.60760
H          3.62520       -1.44490        1.43960
C          1.12710       -1.60380        2.16050
C          3.69840       -2.77450       -0.24270
C          3.27660       -2.98670       -1.68160
C          2.05830       -3.39940       -2.04100
O          0.82030       -1.54740       -0.17880
Br         5.64270       -2.64290       -0.20280
H          3.45670       -3.68540        0.34670
H          4.01020       -2.84090       -2.46930
H          1.29040       -3.61530       -1.30890
H          1.82980       -3.55140       -3.09090
F         -0.25630       -1.63720        2.19240
F          1.61740       -2.72770        2.79870
F          1.56290       -0.47360        2.82680
