17
TSA8_9_I_CF3_Br
C          3.06070       -1.56960        0.26490
C          1.51070       -1.76310        0.34830
I          3.49180       -0.01530       -1.16140
H          3.47300       -1.20090        1.22890
C          0.99250       -1.71230        1.78710
C          3.71650       -2.90770       -0.10370
C          3.13280       -3.45830       -1.41340
C          1.64230       -3.10110       -1.54220
O          1.05990       -2.97250       -0.26380
Br         5.65550       -2.82200       -0.17900
H          3.45580       -3.62600        0.70400
H          3.65130       -3.08320       -2.32240
H          1.12340       -3.88710       -2.12840
H          1.50590       -2.15510       -2.11610
F         -0.38460       -1.83940        1.78440
F          1.53990       -2.74140        2.53290
F          1.32240       -0.50040        2.36660
