20
TSA8_9_CH2F_H_CCl3
C          1.50380        0.38470        2.70820
C          1.08460        1.25870        1.51130
C          1.72070       -1.06050        2.22470
H          2.48540        0.75450        3.07520
H          1.11680        2.34740        1.74610
C          0.42740        0.57330        3.82420
C         -0.97260        0.29960        3.24380
C         -1.17870        1.15370        1.98650
O         -0.18660        0.87700        1.01340
C          0.65660       -0.18250        5.16480
H          0.45890        1.65630        4.08610
H         -1.09200       -0.77310        2.98510
H         -1.19530        2.23820        2.23970
H         -2.17420        0.91360        1.55820
F          2.65930       -1.07880        1.20750
H          0.78130       -1.50930        1.84120
H          2.11890       -1.68820        3.04310
Cl         2.27900        0.16840        5.82070
Cl        -0.52980        0.38730        6.37250
Cl         0.45570       -1.95550        5.05130
