18
TSA8_9_CF3_CN_F
C          1.72360       -0.08180        0.02280
C          1.49020       -1.37580       -0.25470
C          1.81230        1.00290       -1.02600
H          1.80140        0.22810        1.06250
C          1.34920       -2.33390        0.82130
C         -0.19060       -3.78110       -3.92180
C          0.07830       -2.59630       -3.37350
C          0.17700       -2.44010       -1.89300
O          1.32210       -1.77130       -1.53960
F         -0.34520       -3.88690       -5.26540
H         -0.32160       -4.66110       -3.29910
H          0.17280       -1.71570       -4.00360
H          0.09500       -3.40790       -1.35140
H         -0.68170       -1.80510       -1.61400
F          3.14220        1.29940       -1.23980
F          1.23060        0.63580       -2.22880
F          1.16490        2.13650       -0.56940
N          1.20340       -3.10680        1.67310
