18
TSA8_9_CF3_CN_F
C          1.11920       -1.03030       -1.69400
C          1.32630       -2.18490       -0.65130
C          2.08040        0.16740       -1.64150
H          0.14000       -0.53190       -1.53630
C          1.34680       -1.81300        0.76500
C          1.04210       -1.79820       -3.02510
C         -0.31960       -2.51410       -3.01620
C         -0.68290       -2.98820       -1.58420
O          0.49050       -3.33540       -0.86440
F          1.14470       -1.00160       -4.14950
H          1.85910       -2.56130       -3.07900
H         -1.11510       -1.78780       -3.31190
H         -1.40190       -3.82960       -1.63910
H         -1.22510       -2.19270       -1.01670
F          3.40840       -0.20100       -1.69470
F          1.79720        1.01440       -2.70210
F          1.84330        0.87720       -0.47590
N          1.37320       -1.56010        1.89340
