20
TSA8_9_I_CBr3_Me
C          1.80310       -0.14290       -0.12760
C          1.54230       -0.86300       -1.24820
I          2.04940        1.96420        0.01160
H          1.86180       -0.61960        0.84080
C          1.29940       -2.36270       -1.20740
C          2.00510       -0.19390       -5.34030
C          2.82850        0.13390       -4.33350
C          2.29490        0.65490       -3.03260
O          1.45370       -0.29380       -2.48280
C          2.51920       -0.73100       -6.64190
H          0.93110       -0.07790       -5.22080
H          3.90330        0.01870       -4.44700
H          1.72910        1.59340       -3.21350
H          3.16250        0.86100       -2.37180
Br         1.39210       -3.21680        0.54330
Br        -0.45840       -2.73220       -1.93420
Br         2.61300       -3.23120       -2.33760
H          2.08880       -1.73930       -6.81440
H          3.62740       -0.81220       -6.64770
H          2.20620       -0.05700       -7.46560
