20
TSA8_9_I_CBr3_Me
C          2.62060       -1.09240       -2.72720
C          1.32670       -0.77480       -1.90490
I          4.28440       -0.10510       -1.78140
H          2.86130       -2.17610       -2.69530
C          0.57520       -2.02200       -1.40360
C          2.41180       -0.65540       -4.19170
C          2.01510        0.83120       -4.26000
C          1.13860        1.21930       -3.05820
O          0.42740        0.09150       -2.59630
C          3.60110       -0.96610       -5.10340
H          1.54540       -1.23910       -4.57200
H          2.87990        1.52930       -4.29230
H          0.43920        2.02830       -3.35290
H          1.76000        1.64250       -2.23400
Br         1.70750       -3.09830       -0.25050
Br        -0.95740       -1.47740       -0.34770
Br        -0.06080       -3.11970       -2.87430
H          3.82860       -2.05270       -5.07290
H          4.50390       -0.40070       -4.79200
H          3.35530       -0.68900       -6.15080
