21
TSA8_9_F_OMe_CCl3
C          2.62870       -1.60710        1.18560
C          1.83420       -1.27860        2.41660
F          1.83980       -1.31550        0.08390
H          3.52200       -0.94710        1.14570
O          2.31430       -0.35100        3.28570
C          3.08590       -3.09200        1.11870
C          3.77060       -3.30170       -0.21920
C          3.29920       -4.15600       -1.13300
O          0.77260       -1.85100        2.62340
C          4.04780       -3.53290        2.26970
H          2.18000       -3.73810        1.16830
H          4.67310       -2.74120       -0.44680
H          2.40140       -4.73800       -0.94980
H          3.81820       -4.27840       -2.07800
C          1.71830        0.01660        4.47690
H          1.50140        1.10380        4.45560
H          2.42080       -0.19200        5.31100
H          0.77200       -0.53220        4.66870
Cl         3.27030       -3.49760        3.87690
Cl         4.56430       -5.22700        2.02510
Cl         5.51870       -2.51790        2.34330
