26
TSA8_9_Et_OMe_NO2
C          2.64650        1.42660       -0.58750
C          1.30260        1.25010       -1.36050
C          2.40630        0.97640        0.87690
H          3.41430        0.75180       -1.02670
O          1.30720        0.20500       -2.31380
C          3.09730        2.89890       -0.79300
C          1.98950        3.87530       -0.34860
C          0.59950        3.34710       -0.75340
O          0.70410        2.45350       -1.84420
N          4.39080        3.21530       -0.21280
H          3.20380        3.03280       -1.89320
H          1.98420        4.07730        0.74530
H         -0.05530        4.20760       -1.02180
H          0.09450        2.84740        0.10430
C          3.64870        0.97830        1.76420
H          2.03310       -0.07190        0.84780
H          1.62480        1.59830        1.36060
H          4.44590        0.34780        1.31700
H          3.38480        0.55960        2.75880
H          4.02420        2.00610        1.93060
C          1.90770        0.63690       -3.51660
H          2.06990       -0.25050       -4.16110
H          2.90850        1.09250       -3.35190
H          1.23490        1.32810       -4.06830
O          5.31680        2.49880       -0.44610
O          4.64290        4.45700        0.14740
