23
TSA8_9_Et_Br_CF3
C          1.72640        0.13650        0.19840
C          1.29620        0.57240        1.41100
C          1.94910       -1.26400       -0.32060
H          1.92550        0.90880       -0.54040
Br         1.10980        2.46750        1.61020
C          3.11390       -2.08970        4.26870
C          2.61910       -1.74050        3.06820
C          1.14870       -1.47390        2.86980
O          0.94870       -0.15590        2.51460
C          4.57740       -2.33770        4.51690
H          2.44330       -2.19480        5.11720
H          3.28340       -1.62790        2.22110
H          0.60930       -1.63890        3.82690
H          0.67080       -2.16440        2.15240
C          3.37830       -1.42290       -0.82740
H          1.25690       -1.42410       -1.17430
H          1.75910       -2.05910        0.40480
H          3.59220       -0.67940       -1.62570
H          3.51090       -2.44050       -1.25270
H          4.10560       -1.28450       -0.00050
F          5.33540       -2.16750        3.37070
F          5.02450       -1.45470        5.48160
F          4.74590       -3.62980        4.97700
