29
TSA8_9_CBr3_Et_Et
C          1.90310       -0.03970       -0.12800
C          1.53940        0.11200       -1.42440
C          1.93250        1.00140        0.97850
H          2.21910       -1.03000        0.19090
C          1.52960       -1.09190       -2.34330
C          2.10840        1.39580       -4.79120
C          2.78990        1.70660       -3.67420
C          2.08980        2.22650       -2.44980
O          1.17730        1.31640       -1.93680
C          2.73150        0.87450       -6.06970
H          1.02930        1.52330       -4.79410
H          3.86760        1.60180       -3.62420
H          1.55440        3.16240       -2.71470
H          2.85080        2.46970       -1.67710
Br         0.95830        0.28160        2.48870
Br         3.77040        1.25980        1.52300
Br         1.14720        2.74650        0.62400
C          0.12770       -1.33510       -2.89410
H          1.85670       -2.01270       -1.81250
H          2.23220       -0.92730       -3.18500
H         -0.58060       -1.53410       -2.06240
H          0.13940       -2.21690       -3.56870
H         -0.22450       -0.45320       -3.47040
C          4.25180        0.70290       -6.03850
H          2.47620        1.57900       -6.88940
H          2.27340       -0.11130       -6.29940
H          4.74870        1.67810       -5.84820
H          4.60120        0.31950       -7.02030
H          4.54370       -0.02730       -5.25400
