29
TSA8_9_CBr3_Et_Et
C          2.41600       -0.00270       -2.59350
C          0.88880        0.19900       -2.23690
C          3.33450        0.17990       -1.33660
H          2.55420       -1.07630       -2.85980
C          0.11920       -1.13080       -2.33930
C          2.70850        0.79880       -3.90940
C          2.22240        2.26330       -3.83240
C          0.94640        2.37340       -2.99020
O          0.23230        1.16380       -3.05510
C          4.07620        0.63370       -4.61660
H          2.00080        0.31040       -4.61810
H          2.95530        2.99320       -3.43580
H          0.32630        3.21130       -3.36870
H          1.16960        2.63080       -1.93090
Br         2.59100       -0.74430        0.20700
Br         5.05900       -0.68480       -1.58130
Br         3.62740        2.01700       -0.77790
C         -1.34190       -0.98340       -1.92480
H          0.59320       -1.89050       -1.68330
H          0.15880       -1.49700       -3.38890
H         -1.40900       -0.64080       -0.87120
H         -1.85070       -1.96660       -2.01740
H         -1.86550       -0.25790       -2.58270
C          5.21050        1.55450       -4.15360
H          3.92880        0.87800       -5.69270
H          4.38330       -0.43260       -4.56340
H          4.96200        2.61550       -4.35520
H          6.12520        1.31550       -4.73660
H          5.44550        1.45660       -3.08490
