23
TSA8_9_Br_CH2F_Et
C          3.16320       -1.00150        1.40020
C          1.60050       -0.91410        1.36200
Br         3.80940       -1.05980       -0.44170
H          3.58970       -0.07140        1.83590
C          1.08140        0.06750        2.41390
C          3.55240       -2.22970        2.25190
C          2.96070       -3.51200        1.63270
C          1.62480       -3.21920        0.92630
O          0.94080       -2.16770        1.57100
C          5.04050       -2.36430        2.66100
H          3.01890       -2.08670        3.21860
H          3.61860       -4.01180        0.89260
H          1.00390       -4.13820        0.92530
H          1.77710       -2.96160       -0.14550
F         -0.29410        0.17070        2.31660
H          1.52160        1.07270        2.24450
H          1.34760       -0.27820        3.43530
C          6.05140       -2.58070        1.53400
H          5.12360       -3.22640        3.35880
H          5.33930       -1.45050        3.21950
H          5.82170       -3.49520        0.95160
H          7.06220       -2.70350        1.97710
H          6.09830       -1.70290        0.86370
