22
TSA8_9_NO2_CCl3_CCl3
C          2.51450       -1.85450       -0.49170
C          1.60680       -1.33680        0.61320
N          2.69060       -0.82400       -1.50370
H          3.50240       -2.05970       -0.02560
C          2.12280       -1.18620        2.02900
C          1.99580       -3.21500       -1.07310
C          0.63890       -3.07580       -1.74460
C         -0.45310       -3.68520       -1.27200
O          0.45100       -1.03360        0.35230
C          3.00110       -3.91430       -2.03760
H          1.89350       -3.89690       -0.19750
H          0.54100       -2.47490       -2.64200
H         -0.41290       -4.30250       -0.38030
H         -1.40280       -3.56550       -1.78330
O          3.77580       -0.36550       -1.70120
O          1.65890       -0.33250       -2.15660
Cl         3.48990       -0.04260        2.05710
Cl         0.86300       -0.56760        3.13520
Cl         2.67270       -2.76440        2.64950
Cl         2.37950       -5.52340       -2.50620
Cl         3.29180       -2.99500       -3.54280
Cl         4.57570       -4.19390       -1.24080
