19
TSA8_9_NH2_F_CCl3
C          1.83810        0.16670       -0.16830
C          1.47880        1.31710       -0.76200
N          1.96810        0.03900        1.23910
H          2.01660       -0.70730       -0.78720
F          1.32810        1.34130       -2.11220
C          2.56680        4.67950       -1.50730
C          3.09530        3.84860       -0.59430
C          2.24750        3.23350        0.48500
O          1.24240        2.45330       -0.05850
C          3.40340        5.30820       -2.59100
H          1.50470        4.90770       -1.46140
H          4.15560        3.61350       -0.62100
H          1.78840        4.04620        1.08640
H          2.89190        2.62930        1.15640
H          2.24320       -0.86790        1.64180
H          1.74900        0.81400        1.88040
Cl         2.38650        6.35870       -3.60950
Cl         4.70120        6.30270       -1.87850
Cl         4.12700        4.04960       -3.62620
