26
TSA8_9_Me_CBr3_Et
C          3.13100       -1.43440       -1.44610
C          1.65720       -1.88750       -1.63500
C          3.25550       -0.12590       -0.63780
H          3.69740       -2.18350       -0.86690
C          0.91060       -2.51140       -0.43770
C          3.76720       -1.28130       -2.87020
C          2.67360       -1.08390       -3.95260
C          1.48560       -0.28620       -3.39870
O          0.87130       -0.86750       -2.24740
C          4.61750       -2.50660       -3.29480
H          4.44490       -0.39850       -2.88030
H          2.25090       -2.06990       -4.25280
H          0.72410       -0.21360       -4.20310
H          1.81650        0.74540       -3.16220
H          2.70570        0.71560       -1.10260
H          4.32420        0.16470       -0.55820
H          2.89030       -0.25990        0.39630
Br         0.41120       -1.22810        0.93030
Br        -0.72970       -3.30160       -1.09860
Br         1.93510       -3.94800        0.37260
C          5.87500       -2.72030       -2.44570
H          4.96330       -2.34990       -4.34050
H          3.99610       -3.42920       -3.26860
H          5.63940       -2.95090       -1.38910
H          6.44450       -3.58260       -2.85240
H          6.52230       -1.81900       -2.48590
