26
TSA8_9_CF3_CHF2_Et
C          2.74350        1.72930       -0.03600
C          1.47910        2.29020       -0.67300
C          2.41650        0.42160        0.72110
H          3.43760        1.43000       -0.84860
C          1.35010        2.38200       -2.16920
C          3.49810        2.76290        0.87050
C          2.65030        3.23020        2.03920
C          2.99630        2.98920        3.30780
O          0.53820        2.63520        0.02690
C          3.98830        4.01250        0.10060
H          4.40650        2.25780        1.27070
H          1.73890        3.78860        1.85320
H          2.36680        3.34460        4.11710
H          3.90050        2.43990        3.55120
F          3.57660       -0.13230        1.23390
F          1.53040        0.64450        1.76040
F          1.84940       -0.49130       -0.15140
F          0.10260        2.86700       -2.52270
F          2.31590        3.22720       -2.67900
H          1.47700        1.37190       -2.61190
C          5.04560        3.70020       -0.96180
H          4.46560        4.70780        0.82670
H          3.13010        4.54330       -0.36560
H          5.92310        3.20470       -0.49440
H          5.38520        4.64760       -1.43100
H          4.64980        3.04980       -1.76450
