16
TSA8_9_CN_OH_I
C          1.69480       -1.39160        0.41670
C          2.29300       -0.29370        1.30140
C          2.28720       -1.34010       -0.91830
H          0.63210       -1.09780        0.32400
O          1.68200        0.91690        1.30410
C          1.68950       -2.82670        1.01540
C          1.47160       -2.80940        2.50280
C          0.33310       -2.37050        3.03460
O          3.12710       -0.54460        2.15470
I          3.38630       -4.07590        0.57330
H          0.86900       -3.39560        0.52360
H          2.27840       -3.13070        3.15830
H          0.21910       -2.33540        4.11120
H         -0.48190       -2.05040        2.39430
N          2.75820       -1.30170       -1.98680
H          1.88540        1.60000        1.95950
