21
TSA8_9_CF3_NO2_NO2
C          2.72180       -1.14820        0.75910
C          1.38200       -0.79180        1.40020
C          2.67890       -0.77660       -0.74930
H          3.50780       -0.51970        1.22730
N          1.28240        0.16500        2.36740
C          3.09770       -2.63830        1.08600
C          2.24290       -3.63010        0.32430
C          1.40320       -4.47010        0.93610
O          0.37360       -1.38370        1.03450
N          4.50220       -2.95200        0.85050
H          2.93450       -2.77070        2.18060
H          2.32270       -3.67580       -0.75720
H          1.29110       -4.46910        2.01520
H          0.81700       -5.16930        0.34810
F          3.87010       -1.07170       -1.38200
F          1.65670       -1.43860       -1.40700
F          2.45440        0.58330       -0.87390
O          0.22150        0.42120        2.85030
O          2.34460        0.82220        2.78050
O          5.27450       -2.12460        0.47030
O          4.95490       -4.14700        1.16620
