21
TSA8_9_CF3_NO2_NO2
C          1.75020       -0.07610        0.11760
C          1.42640       -0.59400        1.34760
C          1.99040       -0.65910       -1.26090
H          1.85740        1.00270        0.06850
N          1.23560        0.32420        2.43160
C          3.81320       -4.15230        1.54950
C          3.08400       -3.21720        0.91480
C          1.58920       -3.11600        1.09670
O          1.26100       -1.91340        1.68290
N          5.22600       -4.24450        1.39750
H          3.31810       -4.86160        2.20740
H          3.57840       -2.50470        0.26430
H          1.24180       -3.91740        1.78260
H          1.01240       -3.28510        0.17300
F          3.28150       -0.35280       -1.64670
F          1.81450       -2.00810       -1.39390
F          1.11760       -0.04480       -2.13980
O          0.95620       -0.09290        3.51550
O          1.36870        1.62440        2.26800
O          5.82220       -3.48700        0.69190
O          5.88780       -5.17140        2.05460
