18
TSA8_9_CF3_OH_Cl
C          1.88950       -0.06790        0.08770
C          1.20220       -0.35370        1.21310
C          2.13370       -1.02550       -1.05440
H          2.30260        0.93040       -0.02670
O          1.04290        0.59880        2.16370
C         -0.19180       -4.23530        3.36220
C         -0.50510       -3.36050        2.39980
C         -0.11790       -1.91380        2.48880
O          0.66780       -1.58630        1.40430
Cl        -0.66410       -5.92030        3.22080
H          0.35670       -3.92140        4.24550
H         -1.05670       -3.69910        1.52710
H          0.43950       -1.70990        3.43070
H         -1.04120       -1.29540        2.47890
F          3.49580       -1.17500       -1.22860
F          1.57510       -2.27270       -0.84240
F          1.59120       -0.48950       -2.20710
H          1.40650        1.49200        2.07780
