14
TSA8_9_F_Br_F
C          2.15720       -0.09490        0.13940
C          1.33450       -1.13710        0.27190
F          2.75230        0.16900       -1.05380
H          2.35880        0.55580        0.98380
Br         0.53180       -1.44820        1.99440
C         -0.84000       -3.59620       -3.03040
C         -0.74460       -2.76160       -1.99030
C          0.22410       -2.99760       -0.86800
O          1.10570       -1.93540       -0.80540
F         -1.73000       -3.34280       -4.02490
H         -0.21430       -4.48110       -3.09750
H         -1.38470       -1.88540       -1.95290
H          0.80640       -3.92930       -1.03550
H         -0.35480       -3.12290        0.06830
