14
TSA8_9_H_F_F
C          1.39350       -1.66950       -0.92790
C          1.12310       -1.28600        0.49740
H          0.91610       -0.94180       -1.62100
H          2.49290       -1.61960       -1.08030
F          1.65790       -2.01600        1.51080
C          0.91530       -3.09020       -1.27880
C         -0.58720       -3.25250       -1.23650
C         -1.30420       -3.17650       -0.11040
O          0.43170       -0.31310        0.75350
F          1.33750       -3.36780       -2.56780
H          1.38900       -3.83360       -0.60160
H         -1.11120       -3.46490       -2.16430
H         -0.84040       -2.99360        0.85120
H         -2.38010       -3.31340       -0.14610
