14
TSA8_9_H_F_F
C          1.40680       -1.63430       -1.23080
C          0.95820       -1.37650        0.21310
H          0.95000       -0.86030       -1.88530
H          2.51190       -1.55900       -1.31350
F          1.60590       -2.20610        1.11710
C          0.92740       -3.01930       -1.66620
C         -0.58220       -3.11150       -1.45190
C         -0.89760       -2.77410        0.01160
O         -0.45200       -1.46850        0.34590
F          1.23350       -3.23600       -2.99760
H          1.42990       -3.79890       -1.05260
H         -1.10350       -2.38620       -2.11510
H         -0.46240       -3.53270        0.70010
H         -1.99820       -2.81640        0.14830
