23
TSA8_9_Me_CF3_CH2F
C          2.70110       -1.35380        0.11820
C          1.36520       -1.27990        0.83420
C          2.80160       -0.20480       -0.90100
H          3.50090       -1.19190        0.87540
C          1.31280       -1.04240        2.31860
C          2.92870       -2.77080       -0.49280
C          1.93010       -3.10000       -1.58460
C          1.07060       -4.11770       -1.47520
O          0.32380       -1.40610        0.20580
C          4.35380       -2.93620       -1.04420
H          2.82780       -3.50050        0.34330
H          1.91090       -2.49890       -2.48880
H          1.05340       -4.74800       -0.59170
H          0.37200       -4.32490       -2.27950
H          2.02020       -0.28860       -1.68490
H          3.79840       -0.18440       -1.38480
H          2.66590        0.76830       -0.38180
F          0.00160       -1.01000        2.76120
F          1.98190       -2.05970        2.97380
F          1.91620        0.16580        2.61600
F          4.55090       -4.24020       -1.46450
H          5.09590       -2.71210       -0.24850
H          4.53760       -2.26010       -1.90420
