19
TSA8_9_NO2_CHF2_Cl
C          2.67840       -1.18080       -0.98540
C          1.39420       -1.92560       -0.67080
N          2.41550        0.24900       -1.05170
H          3.39310       -1.35570       -0.14740
C          1.25050       -2.68690        0.61850
C          3.39350       -1.73080       -2.25690
C          2.61550       -1.64990       -3.55280
C          2.42430       -0.50600       -4.21560
O          0.46230       -1.89710       -1.46200
Cl         3.83020       -3.44520       -1.97920
H          4.35950       -1.19850       -2.39730
H          2.23380       -2.56410       -3.99920
H          1.87880       -0.50920       -5.15380
H          2.82420        0.43320       -3.85040
O          2.96510        0.98700       -0.29070
O          1.47500        0.72810       -1.83740
F         -0.00250       -3.26880        0.70580
F          2.21120       -3.67780        0.69210
H          1.38100       -1.99050        1.47270
