19
TSA8_9_NO2_CHF2_Cl
C          1.70320       -0.07580       -0.00970
C          1.48240       -1.30920       -0.53920
N          1.90010        1.12870       -0.74960
H          1.70260        0.01650        1.07440
C          1.19600       -2.46570        0.38120
C          4.09940       -2.57690       -4.16660
C          3.08960       -2.58480       -3.29220
C          2.53430       -1.30510       -2.74160
O          1.50090       -1.59710       -1.86970
Cl         4.74170       -4.08610       -4.79390
H          4.53790       -1.64060       -4.49860
H          2.66710       -3.53350       -2.97140
H          2.14620       -0.69060       -3.58140
H          3.35570       -0.76060       -2.22410
O          2.12930        2.13790       -0.15600
O          1.65160        1.19640       -2.03840
F         -0.04350       -2.99660        0.07690
F          2.16070       -3.43990        0.20260
H          1.19540       -2.16490        1.45070
