17
TSA8_9_F_CBr3_Cl
C          1.91500        2.16670        0.10700
C          0.87400        2.49470       -0.94170
F          1.43830        1.09300        0.83790
H          2.86220        1.85380       -0.38310
C          1.14880        2.30910       -2.42160
C          2.19620        3.36680        1.04500
C          3.21090        3.03210        2.11620
C          2.97790        2.12690        3.07270
O         -0.22880        2.87240       -0.57210
Cl         2.80890        4.76410        0.11290
H          1.25520        3.68700        1.54330
H          4.16110        3.55800        2.13330
H          2.04040        1.58460        3.12770
H          3.73340        1.93020        3.82670
Br         1.58050        0.45310       -2.77770
Br        -0.39790        2.77070       -3.50730
Br         2.62820        3.40850       -3.01900
