17
TSA8_9_F_CBr3_Cl
C          2.92290        2.13580       -0.21720
C          1.38130        1.86200       -0.24620
F          3.53950        1.12700        0.50400
H          3.35890        2.13250       -1.23800
C          0.73770        1.98420       -1.64110
C          3.18690        3.47910        0.47160
C          2.58560        3.48260        1.88700
C          1.31140        2.62410        1.94280
O          0.65520        2.65540        0.69400
Cl         4.92490        3.87850        0.52120
H          2.67460        4.26730       -0.11820
H          3.28130        3.09460        2.66260
H          0.64270        2.99820        2.74470
H          1.55730        1.57010        2.21550
Br         1.53700        0.72540       -2.88510
Br        -1.14670        1.54120       -1.52470
Br         0.89230        3.77820       -2.36750
