15
TSA8_9_Br_F_CN
C          2.67400        1.41860        1.08230
C          1.74570        2.23650        0.23010
Br         1.98520       -0.41810        0.86790
H          3.68650        1.32480        0.63050
F          2.08220        2.52790       -1.04950
C          2.74210        1.97300        2.56020
C          2.32270        0.87660        3.47640
C          1.02370        0.73230        3.74280
O          0.61730        2.49310        0.62400
C          4.02140        2.55190        2.99750
H          2.01160        2.81680        2.67420
H          3.02780        0.09320        3.75990
H          0.31070        1.46420        3.37040
H          0.66380       -0.14260        4.26210
N          5.00140        3.01940        3.39770
