21
TSA8_9_NO2_CHF2_NH2
C          2.52740        1.32240       -1.37850
C          1.59320        0.13430       -1.49030
N          2.75000        1.65350        0.02100
H          3.50290        1.02670       -1.83070
C          2.07520       -1.14630       -2.11300
C          2.02300        2.53720       -2.20570
C          0.69420        3.09550       -1.72900
C         -0.39540        3.09370       -2.50300
O          0.44840        0.20870       -1.06740
N          3.03350        3.59680       -2.20060
H          1.91710        2.18210       -3.25660
H          0.61780        3.52440       -0.73580
H         -0.37320        2.68270       -3.50720
H         -1.32540        3.50880       -2.12780
O          3.85000        1.58420        0.47990
O          1.74570        1.97590        0.80860
F          1.07530       -2.10340       -2.10560
F          2.46460       -0.91150       -3.41880
H          2.94310       -1.53100       -1.53740
H          3.14230        3.99140       -1.23790
H          2.73460        4.36710       -2.84260
