20
TSA8_9_Me_Br_CHF2
C          1.85400        0.03970        0.05280
C          1.12800        0.68020        0.98170
C          2.15660       -1.43130        0.10590
H          2.24520        0.60170       -0.78990
Br         0.82270        2.56720        0.75480
C         -0.23990       -0.32730        5.32740
C         -0.54120       -0.47200        4.02800
C         -0.18130        0.57130        3.01060
O          0.62460        0.00440        2.04780
C         -0.60560       -1.37620        6.33430
H          0.27770        0.56360        5.67290
H         -1.06220       -1.36390        3.68980
H          0.34690        1.42550        3.48820
H         -1.11730        0.94350        2.54050
H          1.71590       -1.92680        0.99580
H          3.25650       -1.57730        0.12950
H          1.74820       -1.91780       -0.80420
F         -1.97660       -1.55730        6.35280
F          0.01360       -2.57160        6.01750
H         -0.27170       -1.05460        7.34310
