17
TSA8_9_F_Br_CBr3
C          3.30530        0.50500        1.50420
C          1.82320        0.73570        1.36080
F          3.76780       -0.15720        0.38030
H          3.78150        1.50510        1.53720
Br         1.13210        2.51890        1.32590
C          3.65670       -0.27290        2.80320
C          3.10520       -1.68600        2.73270
C          2.18730       -2.13640        3.59370
O          1.05140       -0.20420        1.25310
C          5.18420       -0.30710        3.10180
H          3.18710        0.27410        3.65200
H          3.46520       -2.35780        1.95900
H          1.79700       -1.50200        4.38330
H          1.81960       -3.15390        3.50880
Br         5.51900       -1.21750        4.78760
Br         6.22690       -1.21430        1.73080
Br         5.90360        1.48770        3.31210
