26
TSA8_9_CHF2_Et_CBr3
C          2.33210       -1.94090       -0.80490
C          1.07260       -2.42620       -0.11700
C          2.11540       -0.44570       -1.14930
H          3.17370       -1.97620       -0.07940
C          1.11300       -2.83250        1.33910
C          2.69770       -2.82020       -2.06080
C          3.87130       -2.19740       -2.79710
C          3.76020       -1.74960       -4.05320
O          0.01960       -2.46120       -0.74110
C          3.05160       -4.31360       -1.74510
H          1.81740       -2.82500       -2.74240
H          4.83030       -2.10690       -2.29290
H          2.82150       -1.81840       -4.59370
H          4.61820       -1.30810       -4.55070
F          3.28030        0.14990       -1.59760
F          1.12740       -0.29250       -2.10760
H          1.80990        0.10230       -0.23120
C         -0.25050       -3.27690        1.86980
H          1.46400       -1.96670        1.94050
H          1.83610       -3.66570        1.46580
H         -0.98730       -2.44980        1.77980
H         -0.16190       -3.55690        2.94060
H         -0.61750       -4.15800        1.30120
Br         3.55590       -5.25230       -3.37610
Br         4.54030       -4.47380       -0.50050
Br         1.56850       -5.35410       -1.04030
