19
TSA8_9_CHF2_NH2_F
C          2.36790        1.67690        0.32560
C          1.38030        1.52520       -0.87840
C          2.05570        0.63690        1.42280
H          3.40770        1.46020       -0.00810
N          2.10570        1.21210       -2.10420
C          2.33460        3.13600        0.81740
C          0.90540        3.60340        1.11950
C         -0.08810        3.01180        0.10470
O          0.57750        2.68330       -1.09620
F          3.16900        3.35160        1.89900
H          2.70180        3.76120       -0.02690
H          0.55930        3.36250        2.14700
H         -0.89640        3.74620       -0.08840
H         -0.60230        2.11180        0.51220
F          2.98130        0.72880        2.44670
F          0.78890        0.78900        1.95330
H          2.12660       -0.38270        0.98810
H          1.41490        1.10590       -2.88140
H          2.58600        0.29210       -1.98450
