19
TSA8_9_Cl_NH2_CF3
C          3.21230        0.65670        1.80630
C          1.72270        0.75180        1.55200
Cl         4.01840        0.10560        0.30380
H          3.59230        1.67810        2.02460
N          1.08240        1.94160        1.64310
C          3.53320       -0.24330        3.03440
C          3.12660       -1.68440        2.79750
C          2.20690       -2.29560        3.55060
O          1.08820       -0.24980        1.25370
C          5.02410       -0.18840        3.42920
H          2.96510        0.17170        3.89840
H          3.59750       -2.24380        1.99410
H          1.71130       -1.77730        4.36540
H          1.94430       -3.32950        3.35130
H          0.06870        2.00390        1.46630
H          1.59260        2.80250        1.88900
F          5.83250       -0.69690        2.42780
F          5.39930        1.11820        3.68840
F          5.22730       -0.93350        4.57790
