19
TSA8_9_Cl_NH2_CF3
C          3.26680        0.43000        1.84160
C          1.70560        0.48630        1.78330
Cl         3.87390       -0.63730        0.53540
H          3.68980        1.43560        1.62710
N          1.24390        1.84610        2.04200
C          3.68770       -0.05310        3.24400
C          3.07930       -1.44330        3.52650
C          1.73330       -1.62150        2.80380
O          1.05580       -0.38910        2.71040
C          5.20560       -0.02900        3.50180
H          3.22480        0.65960        3.96330
H          3.73210       -2.28890        3.21710
H          1.11620       -2.35950        3.35670
H          1.87290       -2.04880        1.78510
H          0.20030        1.85180        1.98000
H          1.59200        2.46450        1.27410
F          5.87170       -0.90290        2.66090
F          5.69680        1.24860        3.30090
F          5.45950       -0.39610        4.81170
