19
TSA8_9_NH2_CH2F_Br
C          2.94060       -0.68130       -1.03120
C          1.46280       -1.02050       -1.06450
N          3.20120        0.40990       -0.08750
H          3.49340       -1.57990       -0.67560
C          1.00000       -2.39210       -0.66250
C          3.48670       -0.35760       -2.44250
C          2.87840        0.88600       -3.04680
C          2.16610        0.84900       -4.17680
O          0.64580       -0.18220       -1.41460
Br         5.41360       -0.12510       -2.37530
H          3.29040       -1.23890       -3.09290
H          3.02470        1.84300       -2.55540
H          1.99320       -0.08450       -4.70330
H          1.74660        1.76410       -4.58170
H          2.63660        1.25450       -0.33270
H          2.92090        0.10630        0.87370
F         -0.37620       -2.49760       -0.76710
H          1.29850       -2.59030        0.38820
H          1.47050       -3.14920       -1.32360
