24
TSA8_9_CBr3_Me_OMe
C          1.43270       -0.60120        0.07410
C          2.02400       -0.85980        1.27140
C          2.12760       -0.43740       -1.26280
H          0.35780       -0.47810        0.05240
C          3.50990       -1.02650        1.45400
C         -0.05980       -3.94470        3.32090
C          0.21750       -3.07170        2.33450
C          0.04710       -1.58590        2.53180
O          1.28310       -0.97690        2.41040
O          0.11360       -5.29350        3.23450
H         -0.44870       -3.56330        4.26010
H          0.59400       -3.39390        1.37190
H         -0.33960       -1.37470        3.55150
H         -0.69210       -1.17560        1.81590
Br         0.80950       -0.03060       -2.62800
Br         3.38350        1.04720       -1.24790
Br         3.01520       -2.07810       -1.80140
H          3.70050       -2.03620        1.87560
H          3.88080       -0.26510        2.16920
H          4.09710       -0.94320        0.52360
C          0.79000       -6.01690        2.26840
H          1.57950       -6.61890        2.76450
H          1.28870       -5.38940        1.50740
H          0.08300       -6.70740        1.76590
