24
TSA8_9_CBr3_Me_OMe
C          1.32660       -1.72780        0.76630
C          1.79990       -0.63000        1.80910
C          2.23170       -1.89200       -0.49960
H          0.35330       -1.37340        0.36080
C          3.29230       -0.64750        2.14930
C          1.04950       -3.02970        1.56260
C         -0.04080       -2.75160        2.62390
C         -0.16440       -1.25900        2.96340
O          1.10540       -0.65940        3.06090
O          0.64320       -4.08560        0.71010
H          2.00940       -3.27030        2.07300
H         -1.04740       -3.08330        2.28720
H         -0.70500       -1.15320        3.92670
H         -0.77580       -0.71630        2.20740
Br         1.31500       -2.89510       -1.89280
Br         2.60470       -0.16000       -1.30270
Br         3.91140       -2.82520       -0.17380
H          3.58480       -1.61010        2.61770
H          3.51030        0.16950        2.86870
H          3.91360       -0.45060        1.25620
C          0.79370       -5.33430        1.35390
H          1.81000       -5.47130        1.78580
H          0.67160       -6.13270        0.59390
H          0.00380       -5.47910        2.12190
