26
TSA8_9_Et_Me_CBr3
C          2.52370        0.03840        1.48880
C          1.34130        0.94830        1.18040
C          2.54250       -1.06300        0.39100
H          3.42600        0.66970        1.34590
C          1.57090        2.38640        0.81920
C          2.44090       -0.36960        3.01350
C          1.23760       -1.25440        3.28620
C          0.20810       -0.85400        4.03840
O          0.19820        0.51510        1.21380
C          3.70090       -0.95290        3.73120
H          2.30160        0.61300        3.52170
H          1.20870       -2.25320        2.85880
H          0.19130        0.13380        4.48730
H         -0.63060       -1.52200        4.20730
C          3.86700       -1.78910        0.18840
H          2.37510       -0.55240       -0.58550
H          1.70800       -1.78220        0.53000
H          4.68550       -1.06130        0.00800
H          3.78270       -2.45190       -0.69930
H          4.13130       -2.42890        1.02790
H          2.08950        2.90140        1.65520
H          0.60720        2.90310        0.62340
H          2.20050        2.44560       -0.09310
Br         3.46960       -0.72030        5.65090
Br         4.01530       -2.86340        3.53860
Br         5.31990        0.01960        3.27620
