26
TSA8_9_Et_Me_CBr3
C          1.89890        0.20650        0.10290
C          1.46140        1.10330        1.03520
C          1.92290       -1.30420        0.12070
H          2.28460        0.61470       -0.82810
C          1.54890        2.56910        0.69920
C          2.48600       -0.80900        4.80380
C          2.16910       -0.75230        3.49950
C          0.81010       -0.29840        3.03070
O          0.91790        0.84350        2.26500
C          3.84750       -1.25120        5.27240
H          1.74510       -0.52710        5.54690
H          2.91330       -1.03270        2.76480
H          0.18300       -0.04430        3.91190
H          0.24610       -1.08530        2.49710
C          3.34420       -1.81220       -0.10890
H          1.28310       -1.66750       -0.71170
H          1.54590       -1.76430        1.03680
H          3.73810       -1.43660       -1.07760
H          3.34330       -2.92240       -0.13670
H          4.01670       -1.47620        0.70780
H          2.18190        3.07890        1.45540
H          0.53120        3.01140        0.72570
H          1.98480        2.76390       -0.30400
Br         3.92650       -1.20600        7.20870
Br         4.21490       -3.06520        4.69090
Br         5.22070       -0.06750        4.58130
