20
TSA8_9_I_NO2_OMe
C          1.44790        0.23100       -0.27560
C          1.58320        0.91740        0.87120
I          1.35640       -1.88630       -0.30660
H          1.39170        0.73760       -1.23310
N          1.64670        2.35110        0.85220
C          3.89250       -0.57430        4.73120
C          3.13230       -0.62890        3.62340
C          2.30520        0.54540        3.19090
O          1.63380        0.20710        2.03180
O          4.65450       -1.61550        5.16710
H          3.90740        0.34140        5.31470
H          3.10160       -1.52980        3.01830
H          2.98470        1.40990        3.03670
H          1.56720        0.78270        3.98650
O          1.62320        2.97410        1.86950
O          1.62300        3.00430       -0.29060
C          4.73430       -2.86090        4.57610
H          5.43430       -3.49540        5.15700
H          5.11670       -2.77130        3.53690
H          3.73510       -3.34710        4.57300
