17
TSA8_9_F_H_CF3
C          2.18910        0.21940       -0.02220
C          1.36880        1.25100       -0.22240
F          2.30710       -0.34230        1.20980
H          2.76920       -0.18020       -0.84740
H          1.28910        1.68350       -1.21660
C         -0.79080        4.29490        2.55220
C         -0.89610        3.09580        1.95540
C         -0.22900        2.80450        0.64270
O          0.64270        1.75130        0.80420
C         -1.44800        4.61820        3.86720
H         -0.20910        5.08140        2.07900
H         -1.47460        2.29940        2.41410
H          0.32580        3.69290        0.26600
H         -1.01150        2.53340       -0.09890
F         -2.15690        3.54140        4.37260
F         -0.47590        4.98010        4.78050
F         -2.31550        5.67920        3.68930
