17
TSA8_9_F_H_CF3
C          0.97610        2.14900        1.79180
C          1.09460        1.80610        0.30200
F          0.49000        1.03990        2.46530
H          1.98030        2.39650        2.19700
H          1.59350        2.61200       -0.28280
C          0.01970        3.34780        1.94770
C         -1.30820        3.01780        1.25060
C         -1.02270        2.60760       -0.20030
O         -0.16930        1.47620       -0.24850
C         -0.20190        3.74260        3.41750
H          0.47190        4.22280        1.42780
H         -1.82140        2.17860        1.76970
H         -0.59190        3.45590       -0.77950
H         -1.98560        2.34600       -0.68620
F         -0.78090        2.70570        4.12860
F          1.00750        4.06940        4.00480
F         -1.03470        4.84580        3.48210
