19
TSA8_9_CN_CN_CH2F
C          1.66670       -0.03730       -0.07240
C          1.55160        0.09780       -1.42350
C          1.81280        1.01270        0.90490
H          1.56210       -1.02850        0.36600
C          1.47450       -1.11780       -2.18420
C          3.69360        3.74590       -2.16020
C          2.98670        2.87730       -1.42490
C          1.54220        2.56930       -1.69510
O          1.44520        1.26520       -2.12880
C          5.15400        3.96220       -1.88220
H          3.23100        4.28400       -2.98320
H          3.48780        2.35500       -0.62090
H          1.15000        3.23440       -2.49810
H          0.89600        2.73910       -0.80890
N          1.93010        1.85660        1.68800
N          1.41470       -2.12530       -2.74820
F          5.34730        4.37620       -0.57590
H          5.57140        4.72530       -2.57210
H          5.69930        3.00860       -2.04410
