19
TSA8_9_CN_CN_CH2F
C          2.98640        1.02410       -0.74750
C          1.61360        0.59910       -1.36840
C          2.62030        1.25590        0.66190
H          3.69630        0.17030       -0.76780
C          1.61500       -0.70720       -2.04110
C          3.44290        2.32010       -1.54290
C          2.38400        3.38560       -1.28590
C          0.97440        2.80620       -1.46400
O          1.01460        1.58730       -2.18790
C          4.82730        3.03200       -1.48520
H          3.39720        2.02450       -2.61450
H          2.49650        3.76870       -0.23910
H          0.38610        3.56630       -2.01060
H          0.47100        2.64800       -0.48250
N          2.29190        1.47900        1.76040
N          1.62300       -1.74940       -2.55700
F          5.10150        3.62520       -0.26740
H          4.79080        3.86090       -2.24190
H          5.68230        2.40500       -1.81340
