19
TSA8_9_NH2_OH_NO2
C          2.80000       -0.15990       -1.53650
C          1.50820       -0.87510       -1.18250
N          3.02710        0.96860       -0.62710
H          3.63530       -0.88290       -1.40090
O          1.52140       -2.16740       -0.79000
C          2.83000        0.28650       -3.03120
C          1.75940        1.31350       -3.33870
C          0.77480        1.07400       -4.21020
O          0.44100       -0.28430       -1.23960
N          4.12360        0.83020       -3.42380
H          2.65780       -0.62900       -3.64200
H          1.79250        2.27990       -2.84490
H          0.70210        0.12450       -4.73110
H          0.02890        1.83730       -4.40670
H          3.11660        0.60870        0.35110
H          2.21980        1.63240       -0.65080
H          2.34190       -2.67540       -0.72420
O          5.01790        0.94210       -2.63950
O          4.32570        1.17510       -4.67770
