17
TSA8_9_CH2F_Br_Cl
C          1.72160       -1.19760       -1.15740
C          0.98260       -1.13400        0.16040
C          1.61830        0.16750       -1.86770
H          2.79520       -1.37630       -0.92890
Br         1.93110       -1.36980        1.80400
C          1.22560       -2.40310       -2.00510
C         -0.21710       -2.27650       -2.43540
C         -1.14820       -3.15600       -2.05270
O         -0.22020       -0.92310        0.19580
Cl         2.23320       -2.64260       -3.46070
H          1.35950       -3.31980       -1.38780
H         -0.51090       -1.45270       -3.07830
H         -0.89960       -3.99640       -1.41210
H         -2.17510       -3.03600       -2.38230
F          2.37450        0.19240       -3.02450
H          2.00510        0.96280       -1.19480
H          0.56500        0.41470       -2.11590
