17
TSA8_9_CH2F_Br_Cl
C          1.82850       -0.01510       -0.01810
C          1.13000       -1.15500       -0.13370
C          2.16540        0.87230       -1.18330
H          2.17030        0.29550        0.96460
Br         0.77720       -2.17170        1.46310
C          0.00380       -3.92090       -3.70770
C         -0.36890       -2.83920       -3.01500
C         -0.07820       -2.69760       -1.54980
O          0.68790       -1.57010       -1.34900
Cl        -0.35700       -4.04540       -5.42180
H          0.53260       -4.73820       -3.22670
H         -0.89800       -2.03580       -3.51960
H          0.46260       -3.59080       -1.16470
H         -1.04170       -2.59680       -1.00520
F          3.53860        0.99150       -1.28420
H          1.72680        1.87700       -1.01070
H          1.77090        0.48120       -2.14430
