21
TSA8_9_CF3_CF3_CN
C          1.62690       -0.06990        0.00350
C          1.47990       -1.42780       -0.20410
C          1.70280        1.18690       -0.85830
H          1.72370        0.23610        1.03800
C          1.86490       -2.35320        0.95170
C          1.54720       -2.70350       -4.52640
C          1.65250       -1.80020       -3.54620
C          0.56820       -1.62040       -2.53370
O          1.12200       -2.07730       -1.35470
C          2.70260       -3.00670       -5.32870
H          0.62800       -3.26200       -4.68050
H          2.58370       -1.25640       -3.40020
H         -0.33830       -2.21280       -2.81840
H          0.18820       -0.60290       -2.43380
F          2.99940        1.59970       -0.65470
F          1.55710        1.04910       -2.21710
F          0.88440        2.21720       -0.40840
F          0.82560       -3.19900        1.25580
F          2.96880       -3.12880        0.60150
F          2.23140       -1.64830        2.08390
N          3.65200       -3.22170       -5.95380
