25
TSA8_9_Et_CHF2_NH2
C          2.51990        0.56400        1.31790
C          1.27790        1.34160        0.91800
C          2.47110       -0.80490        0.57930
H          3.39660        1.13390        0.93510
C          1.40980        2.62510        0.14610
C          2.62700        0.54730        2.87700
C          1.63600       -0.40090        3.52100
C          0.65900        0.02470        4.32640
O          0.16770        0.92560        1.21780
N          3.98840        0.25550        3.33540
H          2.42190        1.59340        3.20660
H          1.72320       -1.46530        3.32460
H          0.53310        1.07890        4.55030
H         -0.02740       -0.69130        4.76740
C          3.70900       -1.68700        0.70420
H          2.35690       -0.58560       -0.50610
H          1.58040       -1.39020        0.89460
H          4.61910       -1.12700        0.40160
H          3.59390       -2.56410        0.03260
H          3.81910       -2.09660        1.72170
F          0.16510        3.16670       -0.12350
F          2.14790        3.53600        0.87940
H          1.92930        2.42500       -0.81450
H          4.21850       -0.75490        3.26490
H          4.06380        0.50530        4.34840
