18
TSA8_9_CN_H_CBr3
C          1.68410        0.09900        0.01930
C          1.49910        1.21130        0.76900
C          1.83440       -1.26870        0.46880
H          1.68660        0.23670       -1.05310
H          1.40940        2.14160        0.22020
C          3.26890        0.08470        4.68090
C          2.82890       -0.00490        3.41610
C          1.40220        0.29140        3.05980
O          1.37240        1.30080        2.12520
C          4.70280       -0.18740        5.05170
H          2.57070        0.36040        5.46650
H          3.50900       -0.29080        2.61990
H          0.83160        0.62440        3.95540
H          0.86470       -0.60060        2.68670
N          1.95810       -2.37560        0.78730
Br         4.91530       -0.07610        6.97450
Br         5.25070       -1.96150        4.48790
Br         5.86600        1.13170        4.23660
