17
TSA8_9_CHF2_I_Cl
C          1.71160       -1.51690        0.91860
C          0.86830       -0.27190        1.07670
C          1.94730       -1.80170       -0.58310
H          2.70660       -1.29800        1.36470
I          1.66670        1.43660        2.02620
C          1.10900       -2.69500        1.73840
C         -0.24780       -3.15010        1.25380
C         -1.33770       -3.06390        2.02320
O         -0.27820       -0.23150        0.65750
Cl         2.20410       -4.10590        1.76520
H          1.03290       -2.35000        2.79420
H         -0.34880       -3.56920        0.25860
H         -1.28760       -2.65600        3.02820
H         -2.29610       -3.40440        1.64510
F          2.79990       -2.87470       -0.76310
F          0.76340       -2.04190       -1.25680
H          2.42700       -0.91240       -1.04590
