17
TSA8_9_CHF2_I_Cl
C          1.84600       -0.04690       -0.02280
C          1.16010       -0.57370        1.00470
C          2.20540       -0.76590       -1.30220
H          2.15730        0.99230        0.04830
I          0.76290        0.69750        2.66700
C         -0.22750       -4.66080        2.71570
C         -0.32110       -3.86370        1.64240
C         -0.26540       -2.36750        1.77810
O          0.74600       -1.86910        0.98240
Cl        -0.30050       -6.40600        2.54170
H         -0.11360       -4.24510        3.71080
H         -0.44730       -4.29980        0.65730
H         -0.10130       -2.08910        2.83990
H         -1.23070       -1.93890        1.43860
F          3.57810       -0.75280       -1.46560
F          1.75580       -2.07370       -1.33050
H          1.73790       -0.21800       -2.14630
