23
TSA8_9_CF3_CBr3_CHF2
C          2.11460       -0.34550       -2.16720
C          0.81170       -1.13370       -2.25860
C          1.94410        0.76550       -1.09230
H          2.91710       -1.03200       -1.81810
C          0.71950       -2.59590       -1.83990
C          2.52640        0.26320       -3.55610
C          3.84330        1.00380       -3.44790
C          3.94780        2.31180       -3.70460
O         -0.19310       -0.56020       -2.65630
C          2.68250       -0.77820       -4.68220
H          1.72700        0.96880       -3.87810
H          4.73410        0.45530       -3.15370
H          3.08390        2.89770       -4.00170
H          4.91020        2.80510       -3.61610
F          3.13740        1.42510       -0.86170
F          0.99500        1.69100       -1.49220
F          1.53910        0.21520        0.10950
Br         1.17930       -2.80740        0.03080
Br        -1.08090       -3.29580       -2.07080
Br         1.90680       -3.73000       -2.86650
F          3.66030       -1.70600       -4.36800
F          1.48880       -1.42550       -4.94270
H          2.98300       -0.26060       -5.61900
