23
TSA8_9_CF3_CBr3_CHF2
C          2.40310       -0.73960       -2.35530
C          0.87170       -0.48010       -2.09510
C          3.25640        0.03020       -1.31390
H          2.62490       -1.81730       -2.19460
C          0.07320       -1.73200       -1.67360
C          2.70970       -0.41680       -3.84900
C          2.22120        0.99320       -4.23160
C          0.90110        1.32950       -3.52240
O          0.21490        0.14250       -3.19710
C          4.14810       -0.66300       -4.33280
H          2.07290       -1.12520       -4.42520
H          2.95000        1.80820       -4.03270
H          0.28010        1.96580       -4.18590
H          1.07200        1.93700       -2.60430
F          4.58500       -0.33580       -1.40860
F          3.15650        1.39840       -1.47510
F          2.83570       -0.28460       -0.03540
Br         0.79360       -2.56670       -0.07590
Br        -1.75360       -1.22240       -1.26970
Br         0.03080       -3.05150       -3.09860
F          5.03640        0.24890       -3.79280
F          4.54940       -1.94840       -4.01640
H          4.18260       -0.54720       -5.43750
