18
TSA8_9_H_F_OMe
C          2.20500        0.49820        0.16200
C          1.33350        1.17070        0.92840
H          2.91380       -0.20910        0.57700
H          2.20940        0.65300       -0.91200
F          0.47380        2.03250        0.32610
C          4.47680        0.40580        3.85880
C          3.48820        0.93660        3.11700
C          2.12150        0.30620        3.09140
O          1.26010        1.02840        2.28280
O          5.72920        0.93490        3.92930
H          4.27580       -0.49160        4.43660
H          3.65850        1.83200        2.52790
H          1.71610        0.31120        4.12530
H          2.17510       -0.74930        2.74690
C          6.16180        2.07860        3.28860
H          7.22710        2.25590        3.54160
H          5.56760        2.95470        3.62620
H          6.07380        1.95980        2.18760
