18
TSA8_9_H_F_OMe
C          3.42510        0.71720        1.22710
C          1.91800        0.43610        1.20480
H          3.93040        0.16010        0.40960
H          3.57290        1.80680        1.07550
F          1.38440        0.80430       -0.01650
C          3.96910        0.25390        2.59360
C          3.15050        0.88100        3.73780
C          1.66160        0.60360        3.48000
O          1.26990        1.15280        2.23620
O          5.37810        0.38990        2.74640
H          3.77540       -0.84100        2.64770
H          3.28640        1.98200        3.76820
H          1.06740        1.08460        4.28460
H          1.43810       -0.48750        3.52540
C          5.83370        1.72520        2.66990
H          6.93280        1.71480        2.81860
H          5.42890        2.35700        3.48510
H          5.67190        2.16640        1.66560
