17
TSA8_9_I_I_CBr3
C          1.87580       -0.05330       -0.28430
C          1.40920        0.37480       -1.46520
I          2.32410        1.23670        1.33500
H          2.01440       -1.11620       -0.11750
I          0.92930       -1.04280       -2.95700
C          2.10100        2.26230       -4.48610
C          2.83380        2.25740       -3.36140
C          2.21530        2.58050       -2.02870
O          1.20140        1.69070       -1.71870
C          2.70020        1.95470       -5.83380
H          1.04170        2.49810       -4.42380
H          3.89480        2.02720       -3.40210
H          1.79060        3.60530       -2.07500
H          2.99740        2.56780       -1.24190
Br         1.33060        2.05990       -7.20140
Br         4.09020        3.23590       -6.26810
Br         3.45070        0.16650       -5.86330
