19
TSA8_9_I_NH2_Me
C          2.11140       -0.97380        2.36880
C          0.91350       -0.18990        2.87440
I          2.05890       -0.87650        0.21350
H          3.03690       -0.46310        2.71500
N          0.81140        1.13290        2.60580
C          2.16430       -2.45200        2.84840
C          3.35470       -3.15220        2.22930
C          3.21870       -4.22010        1.43680
O          0.02850       -0.73720        3.51580
C          2.30870       -2.55900        4.37670
H          1.22300       -2.96140        2.54190
H          4.35340       -2.77650        2.43570
H          2.23980       -4.62780        1.20450
H          4.09750       -4.69420        1.01210
H          0.00040        1.67430        2.94060
H          1.54320        1.62030        2.06830
H          1.45260       -2.10360        4.91040
H          3.23970       -2.05640        4.71790
H          2.35250       -3.62800        4.67770
