19
TSA8_9_I_NH2_Me
C          1.79120       -0.11840        0.01960
C          1.44730       -0.28810        1.31620
I          2.34140       -1.61230       -1.38950
H          1.74810        0.87960       -0.40550
N          1.02170        0.84170        2.06240
C          2.09680       -3.23710        4.18970
C          2.90980       -2.83210        3.20300
C          2.37530       -2.50890        1.83940
O          1.45010       -1.48970        1.95540
C          2.61120       -3.54220        5.56420
H          1.03130       -3.34390        4.00420
H          3.97580       -2.72200        3.38340
H          1.88810       -3.40860        1.40690
H          3.23720       -2.20920        1.20990
H          0.74380        0.73000        3.04810
H          0.98290        1.78140        1.64000
H          2.11120       -2.87270        6.29490
H          3.70940       -3.39040        5.63850
H          2.37750       -4.59630        5.81890
