20
TSA8_9_CF3_Me_I
C          1.75330       -1.67520        0.30940
C          1.14730       -0.44970        0.99330
C          1.57010       -1.60530       -1.23470
H          2.84960       -1.64020        0.49390
C          1.36210       -0.18580        2.45640
C          1.20890       -2.98070        0.97170
C         -0.28430       -3.14820        0.81950
C         -1.10490       -3.14560        1.87460
O          0.48090        0.35390        0.35650
I          2.18080       -4.77310        0.29690
H          1.46480       -2.94630        2.05140
H         -0.71180       -3.28370       -0.16750
H         -0.72520       -3.01660        2.88380
H         -2.17300       -3.27190        1.73140
F          2.19100       -2.66660       -1.86290
F          0.23360       -1.59600       -1.59050
F          2.15320       -0.44330       -1.71160
H          2.01060       -0.95370        2.92370
H          0.38280       -0.17310        2.97890
H          1.85520        0.80050        2.58420
