20
TSA8_9_CF3_Me_I
C          1.68370       -1.76310        0.42870
C          0.79130       -0.74110        1.17190
C          1.48830       -1.57950       -1.09930
H          2.75340       -1.53200        0.62780
C          1.23890       -0.39110        2.59870
C          1.37370       -3.17640        0.98970
C         -0.12520       -3.46310        0.93580
C         -0.88150       -2.33010        1.64190
O         -0.59410       -1.05880        1.07550
I          2.48830       -4.78340        0.10650
H          1.67030       -3.19560        2.06010
H         -0.47270       -3.56880       -0.11090
H         -0.67800       -2.33640        2.73310
H         -1.96860       -2.52540        1.53570
F          2.31490       -2.42760       -1.80990
F          0.18110       -1.79610       -1.49290
F          1.82690       -0.28180       -1.44200
H          1.20980       -1.26440        3.27930
H          0.58150        0.40530        3.00500
H          2.27940       -0.00590        2.57400
