23
TSA8_9_CCl3_CHF2_CCl3
C          1.37270       -0.52090       -0.14580
C          1.96370       -1.41230        0.70310
C          2.05420        0.25040       -1.25850
H          0.30980       -0.34400       -0.04210
C          3.43230       -1.74460        0.67180
C         -1.21770       -3.10900        3.81150
C         -0.49220       -3.24650        2.69170
C         -0.13300       -2.10240        1.79460
O          1.23850       -2.09530        1.63340
C         -1.55510       -4.30500        4.66840
H         -1.57840       -2.12570        4.10100
H         -0.15070       -4.23570        2.39730
H         -0.48970       -1.12220        2.18340
H         -0.61660       -2.30850        0.81600
Cl         2.72340       -0.86760       -2.47940
Cl         0.85620        1.27830       -2.08830
Cl         3.33340        1.32670       -0.63340
F          3.99310       -1.43340        1.89590
F          3.57730       -3.10030        0.44360
H          4.00060       -1.20990       -0.10790
Cl        -2.57320       -3.81050        6.04160
Cl        -2.44770       -5.52420        3.71810
Cl        -0.06240       -5.04350        5.30800
