20
TSA8_9_NO2_OMe_I
C          1.85160       -0.02710       -0.22450
C          1.83820       -0.22460        1.10720
N          1.36130       -0.97180       -1.17480
H          2.26400        0.90790       -0.59630
O          2.33060        0.75440        1.90900
C          4.47960       -2.48120        2.61260
C          3.51900       -2.40720        1.68710
C          2.05250       -2.48020        2.04630
O          1.32780       -1.36500        1.64700
I          6.51010       -2.37790        2.04880
H          4.23660       -2.59540        3.66450
H          3.79340       -2.29750        0.64250
H          1.91150       -2.61970        3.13950
H          1.62850       -3.36990        1.53660
O          1.41740       -0.71150       -2.33760
O          0.85500       -2.12790       -0.80140
C          2.35950        0.68400        3.28550
H          2.77900        1.62940        3.68740
H          3.00420       -0.15570        3.61500
H          1.33160        0.55090        3.68520
