18
TSA8_9_F_Br_OMe
C          3.20930        1.23890        1.52050
C          1.75250        1.17370        1.14400
F          3.93530        0.52290        0.58370
H          3.52450        2.30380        1.48010
Br         0.79340        2.77690        0.73620
C          3.46240        0.71610        2.96230
C          3.15050       -0.76090        3.11510
C          2.17970       -1.20090        3.92260
O          1.17330        0.10100        1.07870
O          4.75850        1.01940        3.47250
H          2.76530        1.29600        3.60820
H          3.72300       -1.49150        2.55340
H          1.57460       -0.51270        4.50460
H          1.98410       -2.26510        4.00400
C          5.81810        0.61580        2.63010
H          6.75360        0.62430        3.22590
H          5.95720        1.34120        1.80050
H          5.70310       -0.42200        2.25510
