18
TSA8_9_F_Br_OMe
C          1.96710        0.31360        0.11290
C          1.40920        1.09490        1.05620
F          2.55570       -0.87860        0.38760
H          1.94180        0.63270       -0.92400
Br         0.59120        2.73100        0.49860
C          4.21460        0.32310        4.22320
C          3.53670        0.11320        3.07850
C          2.05740       -0.18270        3.07510
O          1.37110        0.80280        2.38890
O          5.54590        0.60530        4.26620
H          3.68570        0.27100        5.17010
H          4.04980        0.16170        2.12490
H          1.67120       -0.20210        4.11680
H          1.85040       -1.18200        2.63980
C          6.38090        0.74060        3.17550
H          7.40520        0.97550        3.53010
H          6.03180        1.57230        2.52660
H          6.41430       -0.20690        2.59650
