23
TSA8_9_CCl3_CHF2_CF3
C          1.46390       -0.35350        0.14610
C          2.10620       -0.75420        1.28050
C          2.02550       -0.29900       -1.26470
H          0.43540       -0.03190        0.23670
C          3.55010       -1.20140        1.30800
C          0.43070       -1.81520        5.00200
C         -0.08920       -1.96640        3.77430
C          0.10410       -0.91550        2.72150
O          1.46050       -0.76850        2.48240
C          0.25680       -2.86150        6.06190
H          0.99370       -0.91650        5.24140
H         -0.65700       -2.86010        3.52980
H         -0.31670        0.04630        3.08530
H         -0.44630       -1.23520        1.81340
Cl         2.54020       -1.91250       -1.82090
Cl         0.74940        0.25620       -2.38100
Cl         3.37180        0.85720       -1.41800
F          4.39690       -0.16580        0.97020
F          3.88930       -1.62470        2.58130
H          3.70670       -2.05660        0.62260
F          0.82560       -4.05110        5.64390
F          0.87750       -2.45030        7.22650
F         -1.08910       -3.05940        6.31340
