22
TSA8_9_NO2_CF3_CF3
C          2.48270       -1.83740        0.16360
C          1.54210       -1.02040        1.02820
N          2.71150       -1.15500       -1.10150
H          3.45240       -1.90530        0.70900
C          2.01250       -0.47010        2.34710
C          1.97540       -3.30250       -0.01940
C          0.65590       -3.38780       -0.76360
C         -0.45190       -3.87080       -0.19220
O          0.39860       -0.80060        0.65500
C          3.02030       -4.18750       -0.72920
H          1.84620       -3.72330        1.00430
H          0.59870       -3.06160       -1.79650
H         -0.45110       -4.21650        0.83650
H         -1.37500       -3.92150       -0.76070
O          3.81220       -0.79080       -1.38700
O          1.71230       -0.87450       -1.91080
F          0.99960        0.23850        2.96990
F          2.40360       -1.51000        3.17030
F          3.08710        0.37450        2.13810
F          3.25490       -3.74360       -2.01910
F          4.21240       -4.17490       -0.02630
F          2.56470       -5.49360       -0.78620
