18
TSA8_9_CF3_OH_Br
C          1.61820       -1.65620        0.16450
C          0.86610       -0.59870        0.95380
C          1.49680       -1.36500       -1.35260
H          2.69680       -1.56880        0.42210
O          1.52230        0.23130        1.79290
C          1.17860       -3.08130        0.61440
C         -0.26380       -3.40710        0.30540
C         -1.15380       -3.65670        1.27120
O         -0.34400       -0.48370        0.83480
Br         2.30140       -4.47240       -0.15040
H          1.34890       -3.14010        1.71300
H         -0.59340       -3.45240       -0.72680
H         -0.87130       -3.62820        2.31910
H         -2.18130       -3.89210        1.01370
F          2.23680       -2.26740       -2.09230
F          0.18100       -1.41120       -1.77670
F          1.98990       -0.09820       -1.61360
H          2.47950        0.18000        1.92120
