15
TSA8_9_F_CN_Br
C          1.88170       -1.20820       -0.79780
C          1.94250       -1.93720        0.51990
F          3.16470       -0.74780       -1.05390
H          1.21660       -0.31770       -0.74660
C          1.18970       -1.50920        1.67190
C          1.41100       -2.13150       -1.94980
C         -0.09840       -2.20190       -2.07000
C         -0.90470       -2.70940       -1.13580
O          2.73590       -2.85710        0.65430
Br         2.08790       -1.46550       -3.65120
H          1.84550       -3.15030       -1.83800
H         -0.56340       -1.81960       -2.97640
H         -0.52050       -3.11960       -0.21160
H         -1.97810       -2.71520       -1.31090
N          0.60140       -1.15300        2.59890
