15
TSA8_9_F_CN_Br
C          1.66700       -0.04450        0.04820
C          1.64660       -1.31540        0.53440
F          1.65260        0.20580       -1.29640
H          1.48260        0.82280        0.68280
C          1.34950       -1.58710        1.92580
C          0.89380       -3.69610       -3.32170
C          0.98480       -2.64760       -2.50190
C          0.61740       -2.73220       -1.05680
O          1.71580       -2.38020       -0.29470
Br         1.41050       -3.51800       -5.15230
H          0.53570       -4.65770       -2.96790
H          1.34320       -1.70080       -2.88680
H          0.26480       -3.74860       -0.77780
H         -0.23820       -2.05240       -0.85920
N          1.11300       -1.80760        3.03280
