21
TSA8_9_CH2F_Br_OMe
C          1.73930       -0.10790        0.07200
C          1.37080       -1.28740        0.63510
C          1.96370        0.26220       -1.36950
H          1.88820        0.72380        0.75500
Br         1.15300       -1.28670        2.53650
C          3.48180       -4.18440       -1.74780
C          2.85840       -3.01760       -1.49540
C          1.37100       -2.95120       -1.24700
O          1.11980       -2.48650        0.02690
O          4.82320       -4.28800       -1.95820
H          2.90020       -5.10020       -1.78460
H          3.42680       -2.09720       -1.45390
H          0.93410       -3.97030       -1.31900
H          0.83060       -2.35380       -2.00360
F          3.25910        0.71940       -1.52070
H          1.26640        1.08570       -1.62820
H          1.79860       -0.53050       -2.10310
C          5.73200       -3.24990       -1.92110
H          6.74700       -3.64910       -2.12310
H          5.73200       -2.77670       -0.91560
H          5.48600       -2.49510       -2.69790
