14
TSA8_9_Cl_Br_Br
C          1.64830        0.69170       -0.09990
C          2.38810        1.04780       -1.16810
Cl         2.37090        0.14020        1.40770
H          0.56700        0.72370       -0.13190
Br         4.30300        0.96500       -1.09960
C         -0.28300        4.13620       -2.50890
C          0.11850        3.03860       -1.85920
C          0.51340        1.78160       -2.59280
O          1.83820        1.46940       -2.34350
Br        -0.76450        5.71400       -1.54240
H         -0.34010        4.15670       -3.59350
H          0.16440        3.05590       -0.77490
H          0.39790        1.92960       -3.68730
H         -0.14950        0.93700       -2.30600
