14
TSA8_9_Cl_Br_Br
C          1.24390        1.98700       -0.42260
C          2.08540        1.06380       -1.35530
Cl         2.14360        2.41900        1.06490
H          0.33190        1.44400       -0.09340
Br         3.89680        1.73770       -1.60680
C          0.81350        3.21430       -1.23260
C          0.02860        2.77100       -2.48250
C          0.19980        1.26960       -2.78110
O          1.54680        0.85960       -2.66360
Br        -0.24040        4.47230       -0.18510
H          1.72870        3.74390       -1.57250
H         -1.06210        2.96230       -2.39000
H         -0.15870        1.07010       -3.81220
H         -0.43430        0.65120       -2.10660
