16
TSA8_9_OH_F_CN
C          1.59660        0.02410       -0.07060
C          1.49710        0.50860       -1.38600
O          1.63730        0.71880        1.10180
H          1.49990       -1.05970        0.07270
F          1.55790       -0.43710       -2.36480
C          2.36140        4.25290        0.69010
C          2.39350        3.27290       -0.21670
C          1.15520        2.85900       -0.96960
O          1.40570        1.81600       -1.83080
C          3.57120        4.59990        1.39450
H          1.43550        4.78180        0.90330
H          3.33660        2.77570       -0.40830
H          0.79860        3.72660       -1.53390
H          0.32170        2.56750       -0.28770
H          0.99980        1.38620        1.38150
N          4.55900        4.85510        1.94120
