20
TSA8_9_Et_H_Cl
C          2.39800        0.48740        1.25270
C          1.25690        1.40590        0.86130
C          2.22050       -0.86200        0.50420
H          3.29900        0.99560        0.84370
H          1.06710        1.58510       -0.19260
C          2.58920        0.35970        2.80250
C          1.65960       -0.62470        3.49290
C          0.32900       -0.50820        3.54820
O          0.58740        2.00850        1.68380
Cl         4.27880       -0.10320        3.17760
H          2.48240        1.36280        3.26910
H          2.10030       -1.48380        3.99260
H         -0.20600        0.31220        3.09900
H         -0.25280       -1.25930        4.07180
C          3.40360       -1.82220        0.61920
H          2.09590       -0.64330       -0.57970
H          1.29920       -1.37760        0.85130
H          4.33380       -1.33150        0.26140
H          3.21200       -2.71640       -0.01090
H          3.53510       -2.17530        1.66010
