20
TSA8_9_Et_H_Cl
C          1.77840        0.28340        0.06180
C          1.32060        1.32680        0.79620
C          1.87910       -1.18480        0.39820
H          2.11530        0.53270       -0.94190
H          1.34050        2.29060        0.29670
C          2.47170        0.31040        4.86070
C          2.13550        0.08320        3.58580
C          0.75590        0.39260        3.06040
O          0.81370        1.34710        2.06560
Cl         4.09100       -0.06020        5.43050
H          1.75630        0.72570        5.56380
H          2.88100       -0.32990        2.91870
H          0.13560        0.81070        3.88190
H          0.21320       -0.50720        2.71510
C          3.32080       -1.66130        0.24410
H          1.24370       -1.74730       -0.31850
H          1.53920       -1.44850        1.40420
H          3.67790       -1.48490       -0.79350
H          3.37910       -2.74980        0.45610
H          3.98790       -1.12390        0.95030
