23
TSA8_9_CBr3_CHF2_CF3
C          1.62620       -0.03490       -0.07900
C          1.42830       -0.34120       -1.38580
C          1.85080        1.33920        0.52370
H          1.59050       -0.85160        0.63530
C          1.17230       -1.76990       -1.78750
C          3.81360        1.47220       -4.91740
C          2.79850        0.91370       -4.24520
C          2.51850        1.28950       -2.82180
O          1.41230        0.57960       -2.38150
C          4.14170        1.11820       -6.34570
H          4.43630        2.20860       -4.42170
H          2.15440        0.18260       -4.72500
H          2.30420        2.37510       -2.75170
H          3.41450        1.04820       -2.21040
Br         1.26890        1.28280        2.37390
Br         3.73760        1.77160        0.54030
Br         0.82220        2.76770       -0.30250
F         -0.07210       -1.86070       -2.38040
F          2.13880       -2.16430       -2.69480
H          1.20000       -2.46140       -0.91940
F          3.27550        0.16540       -6.85560
F          4.06190        2.25810       -7.12510
F          5.43040        0.62380       -6.39910
