17
TSA8_9_F_CN_NH2
C          2.54460       -1.51600        0.46100
C          1.89190       -1.12020        1.76600
F          1.94980       -0.84010       -0.59380
H          3.59570       -1.16110        0.53940
C          1.71980        0.27380        2.08800
C          2.53500       -3.03830        0.16120
C          1.17390       -3.50930       -0.35400
C          0.04420       -3.47040        0.35990
O          1.64470       -1.95120        2.62650
N          3.59010       -3.31470       -0.82820
H          2.79430       -3.59820        1.08900
H          1.09340       -3.90240       -1.36370
H          0.00960       -3.11140        1.37540
H         -0.88350       -3.81610       -0.08400
N          1.57190        1.38880        2.35410
H          3.23210       -3.67470       -1.74180
H          4.25670       -4.02510       -0.44510
