17
TSA8_9_F_F_CCl3
C          3.18310        0.26680       -1.86020
C          1.72010        0.12930       -1.52900
F          3.92090        0.11980       -0.69780
H          3.43630       -0.57130       -2.54180
F          0.99390       -0.87340       -2.08860
C          3.50680        1.61360       -2.56680
C          3.21490        2.78080       -1.64130
C          2.29510        3.70570       -1.93430
O          1.18010        0.89500       -0.74630
C          4.97380        1.69340       -3.08240
H          2.85220        1.67600       -3.46650
H          3.76760        2.87180       -0.71070
H          1.71880        3.65490       -2.85270
H          2.11440        4.52610       -1.24740
Cl         5.23500        3.23010       -3.95680
Cl         6.18210        1.60470       -1.76660
Cl         5.31950        0.38070       -4.24400
