17
TSA8_9_F_F_CCl3
C          2.04420       -0.06390       -0.30600
C          1.33640        0.14250       -1.43140
F          2.80290        0.89490        0.28350
H          2.00390       -1.03880        0.16900
F          0.59560       -0.89060       -1.91080
C          4.10690        2.76820       -3.40650
C          3.51310        2.12940       -2.38460
C          2.09680        2.43770       -1.96770
O          1.29570        1.32030       -2.11980
C          5.51770        2.44940       -3.82970
H          3.55810        3.53310       -3.94960
H          4.06290        1.36430       -1.84570
H          1.67950        3.24260       -2.60960
H          2.05920        2.81010       -0.92350
Cl         5.98370        3.47520       -5.21020
Cl         6.65540        2.75590       -2.49100
Cl         5.64450        0.74240       -4.33050
