17
TSA8_9_CN_Cl_NO2
C          2.29540       -1.43320        1.14810
C          2.80050       -0.27810        1.95430
C          2.82640       -1.46250       -0.22700
H          1.23740       -1.15370        1.04240
Cl         2.30230        1.33440        1.44530
C          2.30620       -2.84130        1.85500
C          1.15200       -3.61160        1.26830
C         -0.09000       -3.24830        1.61980
O          3.33170       -0.42720        3.04250
N          3.54560       -3.60940        1.78930
H          2.07220       -2.70180        2.93630
H          1.31080       -4.38870        0.52740
H         -0.23230       -2.45690        2.35800
H         -0.96080       -3.71050        1.18220
N          3.19560       -1.47390       -1.32980
O          4.08100       -3.77150        0.73520
O          3.70820       -4.55030        2.69890
