17
TSA8_9_CN_Cl_NO2
C          2.60340       -1.43520        0.95560
C          1.42650       -0.56790        1.49660
C          2.27910       -1.72550       -0.45160
H          3.55310       -0.85520        0.96780
Cl         1.89490        1.10280        1.90800
C          2.67920       -2.72190        1.84780
C          1.31230       -3.40120        1.80950
C          0.21170       -2.39530        2.16990
O          0.75500       -1.16010        2.59630
N          3.69790       -3.71330        1.55750
H          2.87640       -2.37530        2.88750
H          1.12660       -3.81340        0.78890
H         -0.35760       -2.84870        3.00460
H         -0.49470       -2.23840        1.32400
N          2.00020       -1.96690       -1.55200
O          4.44820       -3.59780        0.63810
O          3.80040       -4.76170        2.35130
