24
TSA8_9_OMe_Me_CCl3
C          0.61690       -1.44760       -1.35700
C          1.26550       -1.71090        0.03020
O          1.56230       -0.86540       -2.23410
H         -0.28710       -0.80670       -1.22970
C          0.86180       -0.73150        1.13280
C          0.10070       -2.78600       -1.94600
C         -0.82360       -3.39240       -0.88000
C         -0.05670       -3.62990        0.43190
O          1.24380       -3.06350        0.45690
C         -0.62590       -2.65780       -3.31640
H          0.96130       -3.47960       -2.09350
H         -1.67290       -2.69880       -0.68960
H          0.08060       -4.72840        0.50500
H         -0.65290       -3.32580        1.31910
C          1.70420        0.52110       -1.99690
H          2.05940        0.99790       -2.93370
H          2.46460        0.69770       -1.20830
H          0.74780        1.03360       -1.74660
H          1.46740       -0.92790        2.04180
H         -0.21410       -0.84980        1.37900
H          1.04450        0.31260        0.80740
Cl         0.48220       -2.10140       -4.60170
Cl        -1.23210       -4.25680       -3.83330
Cl        -2.01680       -1.53590       -3.25660
