19
TSA8_9_CH2F_OH_OH
C          1.90370       -0.10470       -0.06330
C          1.26060       -1.27940       -0.20170
C          2.03610        0.90390       -1.16960
H          2.34730        0.14750        0.89580
O          1.17140       -2.12940        0.85020
C         -0.17530       -3.96510       -3.71260
C         -0.46960       -2.85890       -3.01340
C         -0.10360       -2.72530       -1.56140
O          0.70270       -1.61860       -1.39230
O         -0.50590       -4.07790       -5.01720
H          0.33830       -4.79400       -3.23580
H         -0.98670       -2.03440       -3.49490
H          0.42640       -3.63630       -1.20540
H         -1.03310       -2.59690       -0.96570
F          3.37480        1.13380       -1.42330
H          1.56110        1.85370       -0.84610
H          1.54550        0.57320       -2.10860
H          1.56280       -1.93620        1.71430
H         -0.96270       -3.37330       -5.50070
