22
TSA8_9_NH2_OMe_NH2
C          1.79120        0.04050       -0.12930
C          1.73120        1.05390        0.76870
N          1.78720       -1.35580        0.13490
H          1.84980        0.32240       -1.17730
O          1.75720        2.30320        0.24290
C          4.17410        0.00990        4.12440
C          3.43500       -0.25920        3.03860
C          1.94590       -0.03950        3.03600
O          1.63630        0.95640        2.13540
N          5.58130       -0.14840        4.10910
H          3.70090        0.37060        5.03360
H          3.91290       -0.61030        2.12850
H          1.62010        0.31580        4.03750
H          1.36080       -0.95760        2.87160
H          1.77100       -1.77410        1.06420
H          1.82950       -2.00280       -0.66200
C          2.10920        3.42010        0.97070
H          1.99810        4.32170        0.33460
H          3.17250        3.33470        1.28000
H          1.46720        3.52840        1.87170
H          6.07470       -0.45780        3.25950
H          6.12740        0.08100        4.95190
