22
TSA8_9_NH2_OMe_NH2
C          3.14860        0.42140        1.18150
C          1.67370        0.92620        1.26820
N          3.19650       -0.92990        0.61400
H          3.74400        1.08220        0.51400
O          1.41070        2.06320        0.46560
C          3.75610        0.46730        2.59550
C          2.88760       -0.31210        3.60350
C          1.38800       -0.14470        3.28890
O          1.15640        1.06100        2.59170
N          5.14850        0.02150        2.61230
H          3.72990        1.53400        2.91130
H          3.11330       -1.39970        3.64660
H          0.81100       -0.16110        4.23620
H          1.00420       -1.00520        2.69280
H          2.62780       -1.60080        1.17640
H          2.80790       -0.90840       -0.35670
C          1.92540        3.23170        1.07100
H          1.76580        4.08210        0.37780
H          3.02180        3.16890        1.24020
H          1.38500        3.47440        2.01150
H          5.20330       -0.99490        2.37370
H          5.54000        0.15790        3.57230
