20
TSA8_9_CHF2_Br_Me
C          2.65470       -1.36430       -0.68340
C          1.39290       -1.43700        0.14810
C          2.83060        0.07530       -1.22370
H          3.50460       -1.55480        0.00830
Br         1.50150       -1.81450        2.02010
C          2.67250       -2.51210       -1.74590
C          1.59490       -2.36690       -2.80070
C          0.61300       -3.26260       -2.94090
O          0.29580       -1.25270       -0.35630
C          4.03280       -2.65910       -2.43970
H          2.51560       -3.46050       -1.18150
H          1.61990       -1.51870       -3.47660
H          0.54660       -4.13160       -2.29380
H         -0.13680       -3.12610       -3.71340
F          4.03740        0.23010       -1.87770
F          1.79880        0.44180       -2.06840
H          2.83120        0.78090       -0.36500
H          4.83640       -2.79550       -1.68470
H          4.27140       -1.78370       -3.07550
H          4.02350       -3.55590       -3.09600
