20
TSA8_9_CHF2_Br_Me
C          1.82040       -0.17090        0.05690
C          1.38990       -1.42870        0.35240
C          2.02480        0.59980       -1.22960
H          2.06790        0.44040        0.92060
Br         1.27850       -1.85090        2.21780
C          3.13370       -3.87450       -2.72880
C          2.59950       -2.75830       -2.21260
C          1.14310       -2.67910       -1.82480
O          1.01730       -2.45360       -0.47170
C          4.58420       -3.93380       -3.09640
H          2.52020       -4.75730       -2.88600
H          3.23570       -1.89240       -2.06180
H          0.64750       -3.64900       -2.04370
H          0.57000       -1.93720       -2.40560
F          3.35370        0.96740       -1.32460
F          1.66200       -0.03270       -2.38800
H          1.41260        1.52340       -1.16640
H          5.20970       -3.74670       -2.19800
H          4.81120       -3.16940       -3.86920
H          4.82800       -4.93840       -3.50080
