20
TSA8_9_CHF2_Br_Me
C          2.69050       -1.63320       -0.76830
C          1.23650       -1.79580       -0.25530
C          2.84090       -0.20500       -1.33040
H          3.40340       -1.73860        0.07960
Br         1.03840       -1.49410        1.64940
C          2.99670       -2.79020       -1.76340
C          1.85740       -2.98510       -2.77770
C          0.48240       -2.89920       -2.08220
O          0.62200       -2.99820       -0.67630
C          4.36270       -2.71870       -2.45070
H          3.00310       -3.71700       -1.14480
H          1.88510       -2.28400       -3.63960
H         -0.16910       -3.71310       -2.46110
H         -0.03510       -1.94780       -2.35580
F          4.15000        0.05480       -1.69290
F          2.01260       -0.00360       -2.41980
H          2.56730        0.52770       -0.54150
H          5.16880       -2.63630       -1.69110
H          4.41710       -1.85520       -3.14470
H          4.53310       -3.64240       -3.04390
