21
TSA8_9_CH2F_OMe_H
C          3.00820       -0.62150        1.22650
C          2.11490        0.29280        2.03170
C          2.20750       -1.28680        0.09760
H          3.78750        0.00450        0.73690
O          2.38020        1.62400        2.05810
C          3.76720       -1.61360        2.14760
C          2.91110       -2.53810        2.98230
C          2.19690       -3.54320        2.46780
O          1.16460       -0.16580        2.65250
H          4.36360       -0.99520        2.85420
H          4.48810       -2.21880        1.55630
H          2.90080       -2.39640        4.05920
H          1.61310       -4.18050        3.12390
H          2.19750       -3.75730        1.40580
F          3.03130       -2.09590       -0.66470
H          1.77870       -0.50280       -0.56310
H          1.36030       -1.88270        0.49070
C          1.64360        2.53660        2.78280
H          2.06750        3.55020        2.62990
H          1.68920        2.28940        3.86520
H          0.58630        2.53440        2.44170
