18
TSA8_9_I_CCl3_OH
C          2.05280       -1.66790       -1.41530
C          0.87740       -2.46200       -0.88350
I          1.36240        0.35860       -1.63990
H          2.85980       -1.65680       -0.65060
C          0.91490       -3.08730        0.49640
C          2.61390       -2.32060       -2.70800
C          3.89220       -1.67490       -3.20680
C          3.95440       -0.45550       -3.74910
O         -0.11840       -2.58610       -1.58330
O          2.89980       -3.66740       -2.42540
H          1.83420       -2.27510       -3.50500
H          4.81360       -2.24920       -3.15440
H          3.07620        0.16140       -3.87790
H          4.90700       -0.06980       -4.09740
Cl         2.25790       -4.25270        0.61540
Cl         1.14140       -1.82120        1.73010
Cl        -0.60110       -3.95590        0.87140
H          2.88170       -4.15710       -3.28970
