18
TSA8_9_I_CCl3_OH
C          3.08000       -2.72290       -1.26200
C          1.59590       -2.28000       -1.21570
I          4.41950       -1.38790       -0.21120
H          3.20330       -3.73050       -0.81550
C          0.83800       -2.37270        0.12520
C          3.45400       -2.81310       -2.75570
C          3.13240       -1.49300       -3.46650
C          1.66650       -1.12450       -3.19100
O          1.44650       -1.00070       -1.79910
O          4.81070       -3.12860       -2.92430
H          2.82190       -3.59530       -3.24130
H          3.78960       -0.67970       -3.09030
H          0.97040       -1.86940       -3.64210
H          1.44890       -0.15030       -3.67470
Cl         0.99550       -4.00050        0.83660
Cl         1.37200       -1.16140        1.31870
Cl        -0.89260       -2.09300       -0.18620
H          4.88820       -4.11510       -2.84270
