17
TSA8_9_Cl_NH2_CN
C          1.83560       -0.77380        1.77110
C          1.69340        0.54010        2.51490
Cl         3.14520       -0.80230        0.54990
H          0.92140       -0.75150        1.14430
N          1.35710        1.66720        1.83780
C          1.80220       -2.06050        2.67340
C          0.82350       -3.00440        2.04600
C         -0.46700       -2.64040        2.02220
O          1.78670        0.58290        3.73220
C          3.09920       -2.71850        2.94030
H          1.39000       -1.82760        3.68320
H          1.14930       -3.92960        1.58940
H         -0.77390       -1.70230        2.49130
H         -1.21290       -3.24760        1.53790
H          1.24180        2.56310        2.33490
H          1.16510        1.64050        0.82430
N          4.09250       -3.27910        3.18530
