17
TSA8_9_Cl_NH2_CN
C          2.25900       -0.97970        1.65990
C          0.99340       -0.07430        1.57350
Cl         2.39360       -1.88560        0.12130
H          3.18250       -0.36770        1.76070
N          1.33850        1.34110        1.66140
C          2.10150       -1.91970        2.87310
C          0.78770       -2.69630        2.74930
C         -0.36600       -1.74780        2.37770
O          0.01060       -0.39600        2.55160
C          3.21950       -2.84330        3.10940
H          2.03410       -1.27630        3.77700
H          0.84450       -3.50290        1.98170
H         -1.22470       -1.98450        3.03810
H         -0.71210       -1.91750        1.33170
H          1.72880        1.54210        2.61090
H          0.45980        1.89750        1.55160
N          4.07970       -3.58530        3.33130
