23
TSA8_9_CN_NO2_Et
C          2.95950        0.35050        0.91400
C          1.88200        1.47210        0.62430
C          2.23330       -0.92500        1.07130
H          3.64300        0.21000        0.05840
N          1.80040        2.20050       -0.51670
C          3.78820        0.59940        2.31160
C          3.04420        1.63130        3.10480
C          2.00690        1.26910        3.84960
O          1.03850        1.72020        1.46890
C          5.31990        0.95740        2.50810
H          3.73730       -0.34990        2.88830
H          3.27880        2.68450        2.94410
H          1.39460        2.02700        4.31070
H          1.72920        0.22010        3.90780
N          1.69820       -1.93210        1.26850
O          1.26140        3.26730       -0.48650
O          1.95900        1.60450       -1.67670
C          6.33390       -0.20510        2.53230
H          5.43390        1.32670        3.55990
H          5.66570        1.79280        1.86370
H          6.09950       -0.91410        3.36240
H          7.35270        0.19270        2.77140
H          6.38290       -0.75060        1.57580
