21
TSA8_9_OMe_CF3_H
C          0.98680       -0.74930       -1.18830
C          1.57320       -1.94710       -0.38240
O          1.93360        0.30450       -1.18840
H          0.00910       -0.45210       -0.73390
C          1.57630       -1.73300        1.13460
C          0.73590       -1.25210       -2.61280
C         -0.26730       -2.41640       -2.59140
C         -0.24950       -3.15510       -1.24130
O          1.06510       -3.23820       -0.73300
H          0.37120       -0.45750       -3.29710
H          1.70310       -1.62800       -3.01370
H         -1.31040       -2.07170       -2.76130
H         -0.67390       -4.17150       -1.37400
H         -0.90410       -2.64130       -0.50110
C          1.28470        1.55450       -1.27190
H          0.68390        1.64100       -2.20340
H          2.05910        2.34770       -1.31040
H          0.66530        1.74590       -0.36800
F          0.28100       -1.67630        1.61580
F          2.23710       -2.78270        1.74420
F          2.22950       -0.55560        1.45040
