19
TSA8_9_NH2_Me_Br
C          2.92180        0.61290        1.01790
C          1.47490        1.06230        1.08980
N          3.04490       -0.57510        0.16900
H          3.49210        1.43800        0.53500
C          1.09170        2.43130        0.61170
C          3.61280        0.38320        2.39140
C          3.09170       -0.77900        3.21040
C          1.91470       -0.76370        3.84160
O          0.60480        0.30490        1.48970
Br         5.51030        0.07960        2.06480
H          3.55790        1.30950        3.00380
H          3.71810       -1.65810        3.33390
H          1.26040        0.09830        3.80480
H          1.60800       -1.62230        4.43030
H          2.49120       -1.36660        0.57080
H          2.67350       -0.36260       -0.78570
H          1.62560        3.19780        1.21130
H         -0.00240        2.59350        0.71470
H          1.37030        2.54370       -0.45710
