17
TSA8_9_I_Br_CCl3
C          1.83430       -2.13830       -1.00430
C          0.54890       -2.68060       -0.44380
I          1.55460       -0.01090       -1.21850
H          2.64290       -2.27970       -0.25570
Br         0.51940       -3.49920        1.28530
C          2.25760       -2.79940       -2.35270
C          3.50820       -2.09880       -2.85530
C          3.53150       -1.43270       -4.01490
O         -0.49020       -2.58950       -1.07960
C          2.53740       -4.33600       -2.27010
H          1.43440       -2.64590       -3.08670
H          4.41450       -2.13660       -2.25810
H          2.64980       -1.36820       -4.64490
H          4.44390       -0.94470       -4.34090
Cl         1.08100       -5.29030       -1.87490
Cl         3.08920       -4.94940       -3.85670
Cl         3.80020       -4.72480       -1.06480
