17
TSA8_9_I_Br_CCl3
C          1.80970       -0.17070       -0.02150
C          1.45090       -1.29420       -0.65590
I          2.09980        1.67570       -1.01760
H          1.94410       -0.18020        1.05470
Br         1.16320       -2.89210        0.35750
C          2.26330       -3.93470       -2.97960
C          2.95340       -2.79890       -2.78760
C          2.29100       -1.45400       -2.90960
O          1.25910       -1.31930       -1.99770
C          2.90950       -5.29080       -2.86530
H          1.20590       -3.87370       -3.22530
H          4.01160       -2.83840       -2.54440
H          1.87960       -1.35070       -3.93570
H          3.04360       -0.65220       -2.75710
Cl         1.70430       -6.56400       -3.18260
Cl         4.22750       -5.45450       -4.05510
Cl         3.56490       -5.53310       -1.22490
