20
TSA8_9_CBr3_H_CHF2
C          1.43140       -0.05950        1.96200
C          0.29900        0.15660        0.97890
C          2.31040       -1.24840        1.45280
H          2.08510        0.84240        1.94920
H         -0.45230       -0.61260        0.83320
C          0.77840       -0.18590        3.38750
C          0.06200        1.11630        3.69910
C         -1.26240        1.18090        3.86920
O          0.21560        1.19930        0.34810
C          1.72830       -0.47030        4.56520
H          0.03900       -1.01880        3.37020
H          0.64430        2.03040        3.78070
H         -1.73310        2.13400        4.08600
H         -1.88340        0.29430        3.79130
Br         2.81750       -0.96820       -0.40990
Br         4.02630       -1.38600        2.35710
Br         1.38580       -2.95630        1.55260
F          2.22950       -1.75580        4.50990
F          2.76060        0.45060        4.61200
H          1.15700       -0.40880        5.51750
