20
TSA8_9_CBr3_H_CHF2
C          1.37960       -0.07320        2.10000
C          0.21780        0.18050        1.11110
C          2.27730       -1.23170        1.56400
H          2.00680        0.84600        2.09910
H         -0.45740       -0.69590        0.98170
C          0.72820       -0.24970        3.51720
C         -0.13870        0.98910        3.79870
C         -1.15850        1.17510        2.67390
O         -0.50450        1.35310        1.43380
C          1.68270       -0.44600        4.70720
H          0.04500       -1.12800        3.50320
H          0.49790        1.89910        3.87110
H         -1.75810        2.08320        2.89150
H         -1.87240        0.32100        2.63120
Br         2.75300       -0.91270       -0.29860
Br         4.00020       -1.34150        2.45730
Br         1.39470       -2.96230        1.65190
F          2.28090       -1.68930        4.67250
F          2.64270        0.55020        4.74790
H          1.09730       -0.41450        5.65170
