20
TSA8_9_CBr3_NO2_OH
C          1.44730       -0.40780       -0.18440
C          2.00800       -1.48320        0.44950
C          2.07140        0.54210       -1.19020
H          0.42090       -0.17080        0.06420
N          3.36420       -1.90700        0.26900
C         -1.07630       -4.33030        2.57150
C         -0.36920       -3.86990        1.52880
C         -0.10230       -2.40560        1.33580
O          1.26770       -2.20950        1.33670
O         -1.29620       -5.65340        2.73870
H         -1.48440       -3.64060        3.30390
H          0.03330       -4.56810        0.79980
H         -0.55630       -1.80660        2.15410
H         -0.56270       -2.10690        0.37040
Br         0.75860        1.88060       -1.69840
Br         3.57180        1.52410       -0.43980
Br         2.57180       -0.37370       -2.82900
O          4.10460       -1.36810       -0.49280
O          3.80110       -2.94930        0.94260
H         -0.94780       -6.31890        2.12790
