20
TSA8_9_CBr3_NO2_OH
C          0.94790       -1.66170        0.09200
C          1.37270       -0.84990        1.35970
C          1.89290       -1.46290       -1.13380
H         -0.02770       -1.22590       -0.21600
N          2.72290       -1.11880        1.79830
C          0.69770       -3.13610        0.49800
C         -0.14150       -3.20660        1.78750
C         -0.59910       -1.83320        2.29410
O          0.48820       -0.94080        2.47930
O          0.04370       -3.82700       -0.53400
H          1.67240       -3.62560        0.71710
H         -0.98950       -3.92200        1.70210
H         -1.09400       -1.98560        3.27560
H         -1.35620       -1.37980        1.61880
Br         2.16140        0.43240       -1.47040
Br         3.64150       -2.29420       -0.93450
Br         1.11050       -2.17750       -2.76380
O          3.53650       -0.24720        1.75790
O          3.03320       -2.27110        2.35290
H          0.24970       -4.79120       -0.41090
