19
TSA8_9_NO2_H_CF3
C          2.78030        0.13250        1.91770
C          1.30300        0.42730        1.59730
N          3.23050       -0.95710        1.07110
H          3.39270        1.04170        1.71920
H          1.09350        1.12510        0.75980
C          2.91680       -0.18670        3.43150
C          1.80220       -1.13720        3.90500
C          0.42630       -0.69100        3.35410
O          0.50110        0.58910        2.74800
C          4.31770       -0.65660        3.85820
H          2.72380        0.77420        3.96190
H          1.97980       -2.20450        3.65270
H         -0.30470       -0.67070        4.18790
H          0.03490       -1.44230        2.62640
O          4.13420       -0.78740        0.30930
O          2.63130       -2.12800        1.11120
F          4.62910       -1.87550        3.28230
F          5.26450        0.27740        3.47660
F          4.36290       -0.79330        5.23440
