17
TSA8_9_H_Cl_CCl3
C          3.02980       -0.97070       -2.40860
C          1.69690       -0.79440       -1.72830
H          3.83750       -0.85460       -1.65440
H          3.06990       -2.01080       -2.79280
Cl         0.53050       -2.10800       -1.72010
C          3.23680        0.01670       -3.58650
C          3.24260        1.44560       -3.07540
C          2.33600        2.34450       -3.47190
O          1.42050        0.24910       -1.15810
C          4.54740       -0.27370       -4.37120
H          2.39230       -0.12580       -4.29900
H          4.00460        1.75190       -2.36440
H          1.55640        2.08240       -4.18040
H          2.37220        3.35730       -3.08390
Cl         4.71790        0.86440       -5.73860
Cl         6.00340       -0.12590       -3.34210
Cl         4.52710       -1.91680       -5.07280
