17
TSA8_9_H_Cl_CCl3
C          2.36960       -0.48820       -0.54240
C          1.39070       -0.67900       -1.44050
H          3.05860        0.34570       -0.60820
H          2.48840       -1.17570        0.28870
Cl         0.31650       -2.05310       -1.23610
C          3.60170        0.67850       -4.84440
C          3.27120        0.53070       -3.55170
C          2.01800        1.13950       -2.97600
O          1.17860        0.14500       -2.50590
C          4.84430        0.05170       -5.42440
H          2.95610        1.25970       -5.49820
H          3.91470       -0.05120       -2.89910
H          1.47160        1.70510       -3.76060
H          2.26570        1.85700       -2.16600
Cl         4.97290        0.44800       -7.15680
Cl         6.30010        0.66420       -4.59630
Cl         4.77600       -1.72290       -5.25840
