19
TSA8_9_NO2_CF3_I
C          2.13320        0.14600        0.17300
C          1.69790        1.39720       -0.19600
N          1.87200       -0.61580        1.35560
H          2.77180       -0.37080       -0.53720
C          2.10690        1.93990       -1.55280
C          1.94640        3.69850        3.41620
C          1.72700        2.58190        2.71380
C          0.52630        2.43310        1.81350
O          0.92370        2.28820        0.50130
I          3.64930        3.86920        4.65090
H          1.26080        4.53890        3.36430
H          2.43940        1.76810        2.79000
H         -0.09370        3.35370        1.86470
H         -0.16320        1.63220        2.12310
O          2.40300       -1.67790        1.47350
O          0.98490       -0.26700        2.25110
F          0.96840        2.21840       -2.28640
F          2.81480        3.11380       -1.36910
F          2.89460        1.06940       -2.28810
