14
TSA8_9_I_F_H
C          2.24330        1.74240       -0.25710
C          1.21820        2.03680       -1.31540
I          1.42020        0.32760        1.13570
H          3.12770        1.27530       -0.74300
F          1.48220        1.73950       -2.61460
C          2.68020        3.03650        0.44530
C          3.76980        2.76880        1.45000
C          3.62500        3.06060        2.74610
O          0.14580        2.54020       -1.01960
H          3.08160        3.74610       -0.31020
H          1.79850        3.51000        0.93220
H          4.70160        2.32690        1.10910
H          2.70880        3.50350        3.12420
H          4.43220        2.85430        3.44150
