14
TSA8_9_I_F_H
C          1.80740        0.10170       -0.00000
C          1.48530        1.36820       -0.30940
I          2.00810       -0.68980        1.95630
H          1.94040       -0.61100       -0.80780
F          1.31980        1.69000       -1.61870
C          3.61630        4.80830        0.84690
C          3.33810        3.50950        0.70390
C          2.23790        2.83680        1.48180
O          1.27740        2.33900        0.61930
H          4.41570        5.25780        0.26660
H          3.05540        5.43230        1.53580
H          3.92170        2.91930        0.00330
H          1.74550        3.56120        2.16560
H          2.67710        2.03920        2.10700
