14
TSA8_9_I_F_H
C          2.63560        1.63970       -0.39670
C          1.13250        1.74200       -0.00980
I          3.63610        0.06920        0.68410
H          2.72390        1.33710       -1.46240
F          0.41230        2.07350       -1.14390
C          3.29360        2.99830       -0.16620
C          3.13990        3.43080        1.29910
C          1.86820        2.83850        1.93230
O          0.83530        2.73190        0.97890
H          4.36160        3.01550       -0.47080
H          2.75020        3.73580       -0.79620
H          4.00240        3.12350        1.92910
H          1.54720        3.48470        2.77500
H          2.06150        1.83890        2.37970
