18
TSA8_9_OMe_Cl_I
C          0.70080       -0.92610       -0.91920
C          1.59030       -0.90730        0.30260
O          1.45850       -0.59620       -2.07180
H         -0.15200       -0.21930       -0.77810
Cl         1.21910        0.15990        1.64680
C          0.08530       -2.32450       -1.11890
C         -0.76120       -2.72300        0.06480
C         -0.48950       -3.80800        0.79600
O          2.57490       -1.62800        0.36290
I         -1.16570       -2.34680       -2.85950
H          0.90230       -3.06180       -1.28690
H         -1.61630       -2.10840        0.33150
H          0.35700       -4.44640        0.56250
H         -1.11980       -4.06340        1.64140
C          1.63970        0.80110       -2.16470
H          2.17290        1.02020       -3.11240
H          2.27600        1.17900       -1.33480
H          0.66820        1.34070       -2.21300
