18
TSA8_9_OMe_Cl_I
C          1.45520        0.21110       -0.05620
C          1.02550       -0.87960        0.58470
O          1.64170        0.17470       -1.39680
H          1.63540        1.12830        0.49790
Cl         0.76180       -0.79330        2.32900
C         -1.01100       -4.56750       -1.38540
C         -0.97200       -3.41270       -0.71370
C          0.09420       -3.11960        0.30100
O          0.80030       -2.01430       -0.12640
I         -2.51340       -4.91590       -2.82560
H         -0.27050       -5.34230       -1.21160
H         -1.72300       -2.65380       -0.91190
H          0.79490       -3.97630        0.40100
H         -0.39340       -2.95220        1.28410
C          1.98330        1.29130       -2.12380
H          2.07540        1.01270       -3.19380
H          2.95410        1.69920       -1.77060
H          1.19130        2.06470       -2.02440
