18
TSA8_9_NH2_Cl_NO2
C          1.99980        0.10670        0.15600
C          1.22610        0.85640        0.95340
N          2.28880       -1.25070        0.45040
H          2.41640        0.54410       -0.74670
Cl         0.91530        2.53350        0.49190
C         -0.30140        0.47450        5.34800
C         -0.53990        0.11480        4.07350
C         -0.16980        1.00190        2.92050
O          0.69640        0.32700        2.08700
N         -0.65130       -0.35590        6.45000
H          0.17170        1.43120        5.55260
H         -1.01580       -0.83620        3.85190
H          0.30900        1.94050        3.27880
H         -1.09520        1.26160        2.36270
H          2.88190       -1.79440       -0.19240
H          1.91210       -1.71430        1.29000
O         -1.17000       -1.41850        6.28320
O         -0.40040        0.05550        7.67370
