17
TSA8_9_NO2_I_CN
C          1.66270        1.61650       -0.24730
C          2.26460        0.67720       -1.29140
N          2.10190        1.30590        1.10580
H          0.57920        1.39220       -0.28560
I          1.88440       -1.40540       -1.15560
C          1.80260        3.15220       -0.54440
C          1.34140        3.46630       -1.94650
C          0.08430        3.20470       -2.31350
O          2.86390        1.09330       -2.27070
C          3.13870        3.73540       -0.29970
H          1.13360        3.69290        0.15830
H          2.03050        3.89240       -2.67450
H         -0.25120        3.40360       -3.32230
H         -0.61960        2.78790       -1.59960
O          2.89350        0.43670        1.31930
O          1.53670        1.92010        2.12260
N          4.16280        4.24810       -0.12250
