26
TSA8_9_CCl3_Et_CCl3
C          2.84340       -1.36890       -0.26290
C          1.52550       -1.53620        0.54140
C          2.53800       -0.48800       -1.52540
H          3.53160       -0.74030        0.34460
C          1.47290       -1.18450        2.04000
C          3.49810       -2.79720       -0.39840
C          2.46380       -3.83180       -0.86860
C          1.24740       -3.80430        0.05570
O          0.62800       -2.53360        0.07790
C          4.83710       -2.96090       -1.17200
H          3.74810       -3.08680        0.64510
H          2.15840       -3.67010       -1.91880
H          1.52350       -4.13960        1.07210
H          0.51340       -4.54650       -0.32160
Cl         1.48660       -1.26900       -2.73680
Cl         1.70010        1.01140       -1.01760
Cl         4.01080        0.11040       -2.33090
C          2.22780       -2.12740        2.97120
H          0.40940       -1.13440        2.35560
H          1.90540       -0.16820        2.15980
H          1.78860       -3.14160        2.96510
H          2.14980       -1.74300        4.00990
H          3.30180       -2.16930        2.70010
Cl         6.06370       -1.80070       -0.59350
Cl         5.49930       -4.59150       -0.85760
Cl         4.67000       -2.84320       -2.94870
