17
TSA8_9_NH2_Cl_OH
C          1.73810       -0.34660        2.06720
C          1.27140        0.86390        1.28760
N          1.65880       -1.54830        1.23360
H          2.80990       -0.18140        2.31940
Cl         2.36110        2.21500        1.02300
C          1.02490       -0.57730        3.42900
C         -0.47360       -0.79010        3.35130
C         -1.33350        0.20340        3.10530
O          0.16360        0.89270        0.77530
O          1.60930       -1.70890        4.02400
H          1.22280        0.30670        4.08050
H         -0.87670       -1.77720        3.55810
H         -0.99060        1.21970        2.94410
H         -2.40010        0.00670        3.08730
H          2.24040       -1.41910        0.37340
H          0.66990       -1.73350        0.94860
H          1.39440       -1.67120        4.99310
