24
TSA8_9_CBr3_OMe_CF3
C          1.36840       -1.56000        1.36740
C          1.56820       -0.00060        1.50140
C          2.24870       -2.18660        0.23420
H          0.32680       -1.71890        1.01140
O          2.89990        0.46590        1.32270
C          1.43340       -2.13090        2.81990
C          0.31400       -1.45820        3.66200
C         -0.16190       -0.11470        3.07770
O          0.91710        0.64810        2.59680
C          1.36280       -3.65910        3.01270
H          2.39830       -1.82010        3.25930
H         -0.59780       -2.08930        3.75220
H         -0.69870        0.44990        3.86780
H         -0.90070       -0.26830        2.25780
Br         2.07760       -1.13940       -1.39840
Br         4.14070       -2.31700        0.65590
Br         1.63020       -3.95450       -0.29180
C          3.64190        0.51870        2.52840
H          4.51040        1.18780        2.36200
H          4.05710       -0.47080        2.79430
H          3.08840        0.96500        3.38070
F          0.20720       -4.17090        2.45100
F          2.46720       -4.27600        2.45860
F          1.36550       -3.95390        4.36560
