21
TSA8_9_Me_Me_OH
C          2.75640        0.60900        0.97270
C          1.34860        1.19410        1.33620
C          2.64330       -0.89010        0.65140
H          3.14920        1.08940        0.04710
C          1.01540        2.42330        0.49530
C          3.72940        0.89270        2.13090
C          3.17880        0.33870        3.45860
C          1.64750        0.46860        3.51790
O          1.21850        1.54430        2.71320
O          5.00820        0.38160        1.86040
H          3.78630        2.00290        2.21650
H          3.44400       -0.72460        3.64290
H          1.33300        0.62300        4.57020
H          1.14530       -0.47030        3.19230
H          2.27420       -1.48080        1.51230
H          3.63530       -1.29260        0.35530
H          1.94470       -1.03950       -0.19900
H          1.74240        3.23860        0.70080
H         -0.00610        2.77920        0.74470
H          1.04360        2.16780       -0.58430
H          5.60720        0.72290        2.57510
