17
TSA8_9_H_Me_Br
C          2.96320        2.03190        0.25640
C          1.46250        1.60400        0.26820
H          3.57370        1.25490        0.76560
H          3.34530        2.12050       -0.78370
C          0.70640        2.22550       -0.90600
C          3.10440        3.33520        1.04010
C          2.62700        3.12450        2.48840
C          1.62330        1.96090        2.58750
O          0.76280        1.94550        1.46940
Br         4.92610        4.00350        1.00660
H          2.45520        4.09760        0.56040
H          3.46030        2.88530        3.18430
H          1.03460        2.06210        3.52250
H          2.15320        0.98270        2.65950
H          0.69550        3.33310       -0.83140
H         -0.34130        1.85840       -0.90640
H          1.17820        1.92730       -1.86570
