19
TSA8_9_CN_OH_CHF2
C          2.92060        0.89810       -1.14930
C          1.85820       -0.04940       -1.80700
C          2.33020        1.25230        0.18940
H          3.78170        0.24990       -0.97950
O          2.17890       -1.34270       -2.01880
C          3.22450        2.13640       -2.11220
C          2.27980        3.19360       -1.64980
C          1.03440        3.22340       -2.06770
O          0.75480        0.35260       -2.15050
C          4.61140        2.87190       -2.29850
H          3.03110        1.77270       -3.14580
H          2.56040        3.76770       -0.76300
H          0.72500        2.58630       -2.88260
H          0.33150        3.83280       -1.52160
N          1.88360        1.61590        1.19910
H          1.56330       -1.94930       -2.45830
F          4.96380        3.71080       -1.25290
F          5.66530        2.02570       -2.58600
H          4.50220        3.54440       -3.19230
