19
TSA8_9_CN_OH_CHF2
C          2.90420        0.94970       -1.04040
C          1.54220        0.35380       -1.51450
C          2.58210        1.48980        0.29610
H          3.64500        0.13150       -0.89980
O          1.59630       -1.02600       -1.77010
C          3.32390        2.02200       -2.12180
C          2.23070        3.07900       -2.12910
C          0.85330        2.43180       -2.28350
O          0.94340        1.05280       -2.60090
C          4.67450        2.77800       -2.22700
H          3.30500        1.47010       -3.08670
H          2.27780        3.66770       -1.17810
H          0.38520        2.96500       -3.13220
H          0.22030        2.59130       -1.38320
N          2.30110        1.93500        1.32770
H          2.05830       -1.14340       -2.63970
F          4.91630        3.64890       -1.18180
F          5.75030        1.93030       -2.40970
H          4.60760        3.39950       -3.15890
