21
TSA8_9_OH_CF3_CHF2
C          2.12490        1.33110       -1.68590
C          0.90470        0.78590       -2.39500
O          1.89930        1.28210       -0.29960
H          3.01910        0.71210       -1.94050
C          1.00960       -0.43210       -3.27160
C          2.42730        2.79260       -2.09940
C          3.62400        3.30040       -1.32370
C          3.53880        4.34250       -0.49110
O         -0.17740        1.33340       -2.24340
C          2.70590        2.92550       -3.60860
H          1.53480        3.41580       -1.86160
H          4.58240        2.80260       -1.44400
H          2.60090        4.86780       -0.34020
H          4.41840        4.67700        0.04980
H          2.14020        0.36680        0.00110
F         -0.22580       -0.75140       -3.80900
F          1.89710       -0.19140       -4.30360
F          1.46230       -1.50250       -2.52290
F          2.94520        4.25030       -3.93080
F          3.80450        2.16680       -3.97590
H          1.82650        2.58600       -4.19430
