21
TSA8_9_OH_CF3_CHF2
C          1.77070        0.03560       -0.14020
C          1.47950        0.50750       -1.37710
O          2.16450        0.83890        0.86750
H          1.66660       -1.02330        0.07680
C          0.98460       -0.42380       -2.45830
C          2.54090        4.02080       -3.37730
C          3.16330        3.44160       -2.34050
C          2.38910        2.81790       -1.21740
O          1.58090        1.82070       -1.73510
C          3.31250        4.62900       -4.50910
H          1.45480        4.04980       -3.41090
H          4.24950        3.41200       -2.30780
H          1.75650        3.59100       -0.73150
H          3.12600        2.43360       -0.48760
H          2.35610        0.47500        1.74290
F         -0.26440       -0.00580       -2.87840
F          1.85620       -0.36990       -3.53010
F          0.89070       -1.73780       -2.03110
F          4.12260        5.64590       -4.03810
F          4.09210        3.66290       -5.11970
H          2.60660        5.04630       -5.25710
