18
TSA8_9_OH_Me_H
C          2.82040        0.97110       -0.72850
C          1.40590        1.16430       -1.22250
O          2.79160        0.18680        0.43610
H          3.36490        0.42030       -1.53260
C          1.01730        0.70460       -2.59660
C          3.61620        2.27520       -0.47980
C          3.13910        3.13570        0.66560
C          2.03270        3.88220        0.61390
O          0.55550        1.65160       -0.49440
H          4.64960        1.95530       -0.22310
H          3.68320        2.88340       -1.40800
H          3.75070        3.18390        1.56210
H          1.40900        3.91270       -0.27150
H          1.75580        4.49570        1.46510
H          3.66860       -0.27550        0.49710
H          1.62310        1.24380       -3.35480
H         -0.05830        0.90410       -2.79010
H          1.20030       -0.38650       -2.69100
