23
TSA8_9_CHF2_Me_CCl3
C          2.00480        0.73230       -2.04560
C          0.67190        0.11790       -2.41840
C          1.93250        1.12700       -0.54930
H          2.78600       -0.05490       -2.13590
C          0.59190       -1.32460       -2.82400
C          2.39690        1.93720       -2.97930
C          3.73340        2.50190       -2.52840
C          3.86290        3.75780       -2.08720
O         -0.34920        0.78980       -2.37710
C          2.50180        1.58720       -4.50290
H          1.61610        2.72460       -2.87690
H          4.61510        1.86830       -2.56310
H          3.00950        4.42660       -2.03450
H          4.83510        4.12360       -1.77370
F          3.16620        1.51960       -0.06310
F          1.02000        2.14900       -0.34920
H          1.61580        0.24560        0.04950
H          1.21940       -1.49840       -3.72260
H         -0.45590       -1.60940       -3.05840
H          0.95990       -1.96410       -1.99480
Cl         3.04910        3.01540       -5.43240
Cl         3.66310        0.26190       -4.80760
Cl         0.93650        1.13610       -5.23470
