24
TSA8_9_CHF2_CF3_OMe
C          2.72890        1.49560       -0.73640
C          1.46230        1.66140       -1.55690
C          2.39400        0.86190        0.62910
H          3.38440        0.75590       -1.24990
C          1.27110        0.88550       -2.83120
C          3.56010        2.81620       -0.69230
C          2.86460        4.00610       -0.05550
C          2.64430        4.11410        1.25730
O          0.58600        2.42770       -1.18180
O          3.87680        3.14870       -2.03680
H          4.48760        2.59730       -0.10830
H          2.57160        4.83780       -0.69070
H          2.16170        5.00200        1.65240
H          2.95830        3.34300        1.95070
F          3.54110        0.70510        1.38670
F          1.45950        1.59360        1.33750
H          1.95470       -0.14420        0.45590
F          0.04960        1.18880       -3.40720
F          2.27790        1.20210       -3.72430
F          1.31350       -0.46920       -2.55870
C          5.13790        3.77890       -2.11610
H          5.32050        4.06410       -3.17220
H          5.95330        3.08260       -1.81960
H          5.16200        4.71430       -1.51480
