23
TSA8_9_NO2_OMe_CBr3
C          1.61650       -0.04130        0.13000
C          1.71350        0.38180       -1.15250
N          1.52170        0.79330        1.28410
H          1.57990       -1.11670        0.29170
O          1.70830       -0.57060       -2.11970
C          4.61870        3.88480       -2.09730
C          3.60810        3.01710       -2.25260
C          2.77540        2.57810       -1.08570
O          1.81380        1.68850       -1.52830
C          5.47250        4.32100       -3.25910
H          4.83090        4.27880       -1.10670
H          3.38910        2.61650       -3.23890
H          2.28120        3.46680       -0.63910
H          3.44600        2.10370       -0.33410
O          1.48060        0.28280        2.36130
O          1.30130        2.08450        1.18680
C          1.83930       -0.29170       -3.46340
H          1.79640       -1.23870       -4.03870
H          2.81780        0.19770       -3.65770
H          1.01430        0.37180       -3.80060
Br         6.82640        5.56820       -2.65410
Br         6.36700        2.79290       -4.05340
Br         4.39310        5.20160       -4.60960
