23
TSA8_9_NO2_OMe_CBr3
C          3.42280        1.33870       -1.17260
C          2.00750        1.30210       -1.78450
N          3.41540        0.75280        0.15900
H          4.06760        0.72250       -1.83780
O          1.53040       -0.01400       -1.87850
C          3.95190        2.81170       -1.12930
C          2.87190        3.78710       -1.64520
C          1.53000        3.46470       -0.95370
O          1.09350        2.10870       -1.06520
C          5.29580        2.99620       -1.88370
H          4.13570        3.09190       -0.06780
H          2.73050        3.67230       -2.74110
H          0.74980        4.13320       -1.37300
H          1.63790        3.69920        0.12670
O          4.06760       -0.22150        0.38400
O          2.69360        1.28410        1.12230
C          1.56330       -0.36480       -3.23990
H          1.21620       -1.41330       -3.34100
H          2.60100       -0.32890       -3.64470
H          0.87370        0.27240       -3.83830
Br         5.91800        4.83070       -1.73590
Br         6.67760        1.86630       -1.11580
Br         5.14950        2.56420       -3.77870
