14
TSA8_9_F_Br_Br
C          1.20320       -1.16020       -1.19640
C          1.85310       -1.52970        0.11040
F          2.19290       -0.82330       -2.10400
H          0.54920       -0.27380       -1.04680
Br         1.44940       -0.54950        1.70010
C          0.36160       -2.31960       -1.75350
C         -0.76460       -2.66390       -0.81190
C         -0.87340       -3.87030       -0.24820
O          2.64260       -2.46010        0.16390
Br        -0.40620       -1.82110       -3.46500
H          1.02260       -3.19870       -1.92380
H         -1.50680       -1.90490       -0.57970
H         -0.14880       -4.65290       -0.45020
H         -1.69590       -4.07940        0.42810
