20
TSA8_9_H_CBr3_CCl3
C          2.22540        2.08150        0.31250
C          1.26670        2.76790       -0.63310
H          1.65990        1.22300        0.73880
H          3.09090        1.66210       -0.24430
C          1.47120        2.73230       -2.13670
C          2.70790        2.94780        1.51050
C          3.47250        2.03050        2.44660
C          3.05510        1.77900        3.69190
O          0.26510        3.29400       -0.16960
C          3.58830        4.18080        1.14860
H          1.80420        3.32700        2.04030
H          4.38640        1.55790        2.09790
H          2.14710        2.22700        4.08290
H          3.62800        1.11580        4.33160
Br         0.04720        3.66200       -3.08070
Br         3.14770        3.53970       -2.67380
Br         1.46820        0.89090       -2.74260
Cl         2.69570        5.39510        0.19360
Cl         4.09980        5.02570        2.63920
Cl         5.06720        3.71550        0.25840
