20
TSA8_9_H_CBr3_CCl3
C          3.10860        2.30640        0.18910
C          1.60740        1.86860        0.10940
H          3.69710        1.45320        0.58890
H          3.51190        2.53940       -0.81770
C          0.90060        2.25790       -1.20490
C          3.25370        3.49220        1.16420
C          2.70560        3.07580        2.55050
C          1.55220        2.06960        2.41640
O          0.83890        2.31670        1.22600
C          4.68670        4.07520        1.24730
H          2.59360        4.30170        0.78720
H          3.46360        2.61710        3.22070
H          0.88220        2.14800        3.29700
H          1.94130        1.02310        2.41730
Br        -0.93030        1.61990       -1.17070
Br         0.86430        4.17750       -1.49100
Br         1.76350        1.40990       -2.72350
Cl         5.21230        4.67970       -0.34830
Cl         4.72690        5.46040        2.37380
Cl         5.87700        2.86240        1.80370
