29
TSA8_9_Et_CBr3_Et
C          2.33940        1.56070        0.29950
C          1.21790        1.30530       -0.80700
C          2.26120        0.31150        1.24570
H          3.31060        1.65170       -0.22940
C          1.58860        0.36560       -2.00410
C          2.10150        2.91610        1.10950
C          1.31990        3.96080        0.29220
C          0.17850        3.31120       -0.43530
O          0.75920        2.49530       -1.40690
C          3.38120        3.70890        1.55120
H          1.44460        2.69690        1.98060
H          1.96220        4.44820       -0.47860
H         -0.41490        4.09660       -0.94750
H         -0.51600        2.76320        0.24520
C          3.25730        0.15160        2.37890
H          2.40130       -0.60160        0.67040
H          1.24060        0.26670        1.68840
H          4.29360        0.12210        1.98340
H          3.07130       -0.81930        2.88700
H          3.10420        0.92460        3.14520
Br         2.06350       -1.48600       -1.66000
Br         0.04350        0.23390       -3.17640
Br         3.02990        1.14740       -3.04910
C          4.34630        3.11180        2.55990
H          3.04440        4.66620        2.01220
H          3.97410        3.96360        0.64400
H          3.83240        2.91640        3.52270
H          5.15070        3.84990        2.76550
H          4.84490        2.22000        2.14700
