19
TSA8_9_CH2F_NO2_Br
C          1.86180        0.00090       -0.13650
C          1.48980        0.19250       -1.43920
C          1.95350        0.96400        1.01780
H          2.13130       -1.00620        0.16480
N          1.46750       -0.94190       -2.31270
C          3.21870        4.03140       -2.30360
C          2.67900        3.09560       -1.51480
C          1.22720        2.70110       -1.62750
O          1.11930        1.38120       -2.01330
Br         5.06900        4.48340       -2.13940
H          2.62420        4.54490       -3.05280
H          3.31070        2.60210       -0.78510
H          0.73700        3.31330       -2.41440
H          0.64510        2.90360       -0.71090
F          3.24760        0.96400        1.50200
H          1.27740        0.60410        1.82180
H          1.67230        1.99860        0.81770
O          1.14320       -0.80330       -3.45260
O          1.80840       -2.14260       -1.88930
