22
TSA8_9_Me_CCl3_NO2
C          2.41030       -1.62490       -0.36470
C          1.38220       -1.32580        0.71500
C          2.50460       -0.42240       -1.32460
H          3.39880       -1.73860        0.13240
C          1.79440       -1.22890        2.16940
C          2.09200       -2.98280       -1.07600
C          0.82790       -2.90260       -1.90820
C         -0.25210       -3.64170       -1.63750
O          0.21180       -1.15670        0.40190
N          3.18040       -3.45620       -1.92230
H          1.96310       -3.74280       -0.27180
H          0.79660       -2.23100       -2.76030
H         -0.26800       -4.33050       -0.79910
H         -1.13460       -3.55660       -2.26330
H          3.27230       -0.58100       -2.10710
H          1.53200       -0.22420       -1.82100
H          2.78700        0.48910       -0.75580
Cl         2.52470       -2.76510        2.70200
Cl         2.98450        0.08180        2.37730
Cl         0.40170       -0.88240        3.23440
O          4.19870       -2.84300       -2.03520
O          3.07120       -4.62560       -2.51760
