22
TSA8_9_Me_CCl3_NO2
C          2.45180       -1.78580       -0.43580
C          1.25240       -1.60040        0.56000
C          2.37140       -0.67640       -1.50290
H          3.42190       -1.66300        0.09350
C          1.67250       -1.34760        2.01890
C          2.39040       -3.22790       -1.01310
C          1.01950       -3.48430       -1.66340
C         -0.10640       -2.83280       -0.84090
O          0.30490       -2.66570        0.49940
N          3.47390       -3.58930       -1.91490
H          2.45600       -3.91150       -0.13720
H          0.94490       -3.13210       -2.71510
H         -1.01390       -3.46850       -0.89150
H         -0.40660       -1.85020       -1.27320
H          3.21720       -0.72300       -2.21480
H          1.43070       -0.72940       -2.08600
H          2.41430        0.31750       -1.00880
Cl         2.54380       -2.75340        2.68990
Cl         2.71020        0.09880        2.14100
Cl         0.22350       -1.05310        3.01400
O          4.35670       -2.82660       -2.16680
O          3.53070       -4.81340       -2.39440
