22
TSA8_9_NH2_CHF2_CCl3
C          1.92020       -0.25480        0.17020
C          1.43350       -1.52070        0.03370
N          2.36780        0.60950       -0.86410
H          1.96780        0.16310        1.17210
C          0.99220       -2.24800        1.27860
C          4.00390       -3.36090       -2.79310
C          3.36940       -2.31480       -2.23740
C          1.87910       -2.13460       -2.36600
O          1.29370       -2.24200       -1.12090
C          5.48610       -3.57520       -2.62540
H          3.43400       -4.08650       -3.36800
H          3.93380       -1.59290       -1.65480
H          1.45430       -2.94300       -2.99790
H          1.59500       -1.20110       -2.88010
H          2.36960        0.38100       -1.85690
H          2.69750        1.55120       -0.60720
F         -0.34040       -2.59580        1.16210
F          1.74670       -3.39800        1.41970
H          1.11570       -1.63830        2.19840
Cl         5.98410       -5.05630       -3.48230
Cl         6.40080       -2.19960       -3.29450
Cl         5.88790       -3.76690       -0.89820
