21
TSA8_9_CCl3_OMe_Cl
C          1.23050       -0.71840        1.52570
C          2.48920       -0.33540        2.29630
C          1.55030       -1.20690        0.06370
H          0.64270        0.21860        1.40700
O          3.72360       -0.58960        1.78810
C          0.38650       -1.68920        2.42500
C         -0.97830       -2.03230        1.88190
C         -1.90980       -1.09820        1.66270
O          2.37660        0.19960        3.39150
Cl         1.26210       -3.20200        2.81850
H          0.20710       -1.18890        3.40230
H         -1.22650       -3.06960        1.67600
H         -1.71370       -0.05010        1.86390
H         -2.88320       -1.38550        1.27850
Cl         2.55340       -2.68500       -0.01160
Cl         0.08180       -1.51010       -0.90370
Cl         2.42630        0.07700       -0.82220
C          4.90130       -0.31500        2.44950
H          5.75560       -0.62160        1.81180
H          4.94430       -0.88430        3.40250
H          4.98000        0.77370        2.65700
