21
TSA8_9_CCl3_OMe_Cl
C          1.28280       -0.40330       -0.11960
C          1.90100       -0.55660        1.07520
C          2.02580       -0.29330       -1.43130
H          0.20350       -0.33810       -0.16420
O          3.25730       -0.59980        1.11400
C         -0.91830       -1.74920        4.64970
C         -0.21950       -1.98660        3.53430
C         -0.12360       -0.97520        2.43000
O          1.20700       -0.64150        2.24920
Cl        -1.00150       -2.95820        5.92040
H         -1.44460       -0.80980        4.79020
H          0.29720       -2.93500        3.41710
H         -0.69320       -0.05590        2.68470
H         -0.56750       -1.43440        1.52430
Cl         2.96860       -1.77420       -1.74530
Cl         0.86350       -0.08340       -2.76680
Cl         3.11740        1.11810       -1.42500
C          3.98080       -0.75570        2.27600
H          5.06300       -0.76580        2.03220
H          3.71520       -1.71760        2.76510
H          3.77670        0.08750        2.96990
