17
TSA8_9_Cl_CH2F_I
C          3.08070       -0.71350       -1.29080
C          1.59540       -0.98650       -1.25150
Cl         3.51540        0.38440        0.05580
H          3.61900       -1.67200       -1.12250
C          1.09420       -2.38620       -1.03970
C          3.53280       -0.16440       -2.66220
C          2.93530        1.18590       -2.97700
C          2.15210        1.38260       -4.04180
O          0.79810       -0.06920       -1.38350
I          5.66910        0.00760       -2.74340
H          3.25080       -0.90760       -3.44120
H          3.14910        2.02540       -2.32230
H          1.91360        0.57180       -4.72300
H          1.74180        2.36810       -4.23720
F         -0.28960       -2.41820       -1.03370
H          1.46750       -2.77000       -0.06740
H          1.46610       -3.04020       -1.85600
