17
TSA8_9_Br_F_CBr3
C          1.88960       -0.12530       -0.00920
C          1.42350       -0.97760        0.92570
Br         2.54530       -0.58730       -1.75500
H          1.85770        0.93770        0.20770
F          0.92120       -0.44200        2.06920
C          2.48710       -5.54540        0.80520
C          2.68810       -4.25030        1.09830
C          2.29110       -3.15030        0.15800
O          1.37930       -2.33260        0.79660
C          2.88410       -6.64510        1.75530
H          2.02560       -5.81300       -0.14150
H          3.15130       -3.97380        2.04170
H          1.82640       -3.56130       -0.76430
H          3.21800       -2.60310       -0.10550
Br         2.44910       -8.37090        0.98790
Br         4.79320       -6.59750        2.09790
Br         1.92840       -6.46990        3.43470
