22
TSA8_9_CHF2_Me_NO2
C          2.42110        1.73100       -0.35680
C          1.41410        1.01840       -1.24070
C          2.48110        1.01350        1.01780
H          3.41680        1.61110       -0.83990
C          1.86810        0.32580       -2.49140
C          2.11800        3.27120       -0.31870
C          0.86140        3.59200        0.46460
C         -0.21680        4.13470       -0.10870
O          0.22890        1.00040       -0.94180
N          3.21760        4.07140        0.20550
H          1.98370        3.59080       -1.37760
H          0.83450        3.39140        1.53070
H         -0.23750        4.36090       -1.17010
H         -1.09370        4.35660        0.49110
F          3.41660        1.57800        1.86140
F          1.25110        1.00830        1.65190
H          2.77430       -0.04550        0.85260
H          2.34800        1.06040       -3.17140
H          1.00880       -0.14190       -3.01790
H          2.60200       -0.46580       -2.23190
O          4.25250        3.57600        0.53440
O          3.10920        5.38350        0.21460
