22
TSA8_9_CHF2_Me_NO2
C          2.54510        1.87290       -0.38450
C          1.33790        1.29060       -1.19790
C          2.48390        1.28220        1.05000
H          3.50520        1.52620       -0.82910
C          1.79650        0.42540       -2.36800
C          2.49970        3.42650       -0.51260
C          1.13290        3.96380       -0.06160
C         -0.00400        3.06040       -0.57520
O          0.43790        2.28840       -1.67300
N          3.59070        4.16210        0.10750
H          2.56220        3.63950       -1.60440
H          1.03250        4.10370        1.03600
H         -0.86390        3.69470       -0.87310
H         -0.39420        2.39390        0.22680
F          3.57470        1.63730        1.81620
F          1.33460        1.64790        1.72310
H          2.49400        0.17380        0.97380
H          2.36860        1.03960       -3.09600
H          0.91300       -0.01130       -2.87850
H          2.43840       -0.40270       -2.00050
O          4.50850        3.60160        0.62270
O          3.63910        5.47040       -0.02800
