17
TSA8_9_CCl3_F_H
C          1.69910       -1.49430        1.47190
C          1.19290       -0.04960        1.66570
C          1.58710       -1.95490       -0.01550
H          2.78770       -1.52130        1.70130
F          1.64510        0.50400        2.85540
C          0.99880       -2.39030        2.52100
C         -0.51650       -2.20230        2.50600
C         -0.83480       -0.70460        2.61270
O         -0.22140        0.03500        1.56690
H          1.27170       -3.45990        2.40880
H          1.34800       -2.07350        3.52880
H         -0.96380       -2.63240        1.59140
H         -0.53650       -0.30670        3.60840
H         -1.93470       -0.57600        2.54230
Cl         2.20190       -3.62040       -0.20160
Cl        -0.05130       -1.89010       -0.72630
Cl         2.62080       -0.90830       -1.02830
