22
TSA8_9_NO2_CH2F_CBr3
C          2.85080       -0.59960        1.69250
C          1.62920        0.04490        2.31990
N          2.53920       -0.98130        0.32320
H          3.65130        0.17110        1.64860
C          1.67110        1.48550        2.74650
C          3.43660       -1.82230        2.48260
C          2.42530       -2.94830        2.61940
C          2.60550       -4.14110        2.04320
O          0.59460       -0.59210        2.45320
C          4.04040       -1.47510        3.87900
H          4.29530       -2.18120        1.87020
H          1.52690       -2.79420        3.20740
H          1.86000       -4.91960        2.16890
H          3.48720       -4.35140        1.44650
O          3.12670       -0.47570       -0.58580
O          1.59640       -1.86370        0.06640
F          0.45260        1.87590        3.27520
H          1.90280        2.12360        1.86870
H          2.45850        1.62820        3.51450
Br         4.92240       -3.04150        4.62360
Br         5.41600       -0.10700        3.74720
Br         2.73220       -0.89400        5.19780
