23
TSA8_9_CHF2_NH2_OMe
C          2.56210        1.78480        0.16890
C          1.42580        1.44540       -0.78500
C          2.71540        0.59100        1.15220
H          3.49220        1.84930       -0.43690
N          1.66540        1.27850       -2.10680
C          2.31510        3.21400        0.77720
C          1.21380        3.27860        1.82320
C          0.07230        3.94440        1.61930
O          0.28480        1.32410       -0.36190
O          3.48670        3.92200        1.17010
H          1.97350        3.81640       -0.09560
H          1.33990        2.77230        2.77420
H         -0.11760        4.47050        0.68950
H         -0.68840        3.96360        2.39390
F          3.82230        0.68430        1.96440
F          1.58760        0.42590        1.93710
H          2.84830       -0.33760        0.55610
H          0.89500        1.05060       -2.75280
H          2.61630        1.37590       -2.49280
C          4.19410        3.37320        2.25580
H          4.69510        4.20530        2.79130
H          4.99740        2.70860        1.87810
H          3.55270        2.87770        3.01110
