18
TSA8_9_H_CBr3_CN
C          1.57310        0.03890       -0.02270
C          1.42400        1.20110       -0.89810
H          1.46180       -0.00090        1.05780
H          1.46170       -0.95010       -0.46340
C          2.07660        1.08220       -2.31030
C          0.93910        5.04870        1.08790
C          0.80120        3.75960        1.40730
C          0.13900        2.80820        0.46890
O          1.10050        2.51670       -0.50970
C          1.96510        5.81120        1.75670
H          0.38410        5.49170        0.26370
H          1.42100        3.36670        2.19800
H         -0.72850        3.29280       -0.02110
H         -0.26100        1.92460        1.02420
Br         1.42440       -0.49990       -3.15560
Br         1.52890        2.61690       -3.33400
Br         4.04630        1.05790       -2.60650
N          2.80080        6.38700        2.31300
