19
TSA8_9_CHF2_NO2_H
C          2.28310        1.42200       -0.71270
C          1.61470        0.30510       -1.50760
C          1.97260        1.26720        0.78960
H          3.38380        1.31590       -0.81450
N          2.34410       -0.57270       -2.25570
C          1.97430        2.85280       -1.23870
C          0.55340        3.34710       -1.09890
C         -0.45780        2.91020       -1.85410
O          0.40000        0.17350       -1.44890
H          2.60820        3.54770       -0.64590
H          2.29620        2.95380       -2.29800
H          0.35220        4.13060       -0.37370
H         -0.31020        2.16550       -2.62650
H         -1.45170        3.32300       -1.71450
F          2.66560        2.21240        1.52540
F          0.61820        1.40410        1.04140
H          2.29340        0.26000        1.13180
O          1.79570       -1.44770       -2.85630
O          3.65450       -0.47200       -2.33310
