19
TSA8_9_CHF2_NO2_H
C          2.01720        0.31020       -0.10610
C          1.66780        0.25840       -1.43320
C          1.64330        1.19350        1.06750
H          2.71710       -0.44650        0.23290
N          2.23290       -0.78840       -2.23390
C          1.34370        4.44980       -2.48170
C          1.28030        3.39110       -1.66820
C          0.23400        2.31740       -1.83940
O          0.82280        1.10160       -2.10890
H          2.11030        5.20310       -2.33180
H          0.63940        4.57770       -3.29810
H          2.00950        3.31130       -0.86990
H         -0.41160        2.56750       -2.70830
H         -0.46760        2.24060       -0.99340
F          2.78780        1.79840        1.55210
F          0.70120        2.16040        0.84940
H          1.23840        0.53380        1.86330
O          1.95060       -0.86280       -3.39200
O          3.06060       -1.67780       -1.72490
