21
TSA8_9_H_CN_Et
C          2.32970       -0.71820       -1.38150
C          1.26260       -1.22710       -0.36270
H          2.31660        0.40030       -1.40210
H          3.33620       -1.04990       -1.05510
C          1.63610       -0.90140        1.02730
C          2.03030       -1.25770       -2.81290
C          1.63850       -2.74150       -2.74230
C          0.57560       -2.95540       -1.67500
O          1.12220       -2.62820       -0.42050
C          3.20970       -1.18350       -3.81990
H          1.15170       -0.69090       -3.20000
H          2.52080       -3.35720       -2.45200
H          0.30420       -4.02750       -1.66960
H         -0.35960       -2.38500       -1.90290
N          1.97350       -0.67670        2.11060
C          3.93640        0.14540       -3.98120
H          2.80910       -1.48750       -4.81180
H          3.98940       -1.92010       -3.52560
H          3.24740        0.96530       -4.25980
H          4.68700        0.01870       -4.79530
H          4.49260        0.39740       -3.05390
