16
TSA8_9_Cl_NH2_Cl
C          2.21230       -0.31640       -1.76180
C          1.35640       -1.52360       -2.07040
Cl         1.21570        0.86780       -0.86300
H          3.06090       -0.61200       -1.10630
N          1.68330       -2.74510       -1.58760
C          2.77650        0.31210       -3.05210
C          3.63280        1.51150       -2.73380
C          3.34520        2.73050       -3.20060
O          0.35670       -1.39650       -2.76260
Cl         3.79010       -0.86820       -3.93210
H          1.93160        0.60350       -3.71540
H          4.51030        1.38150       -2.10650
H          2.47750        2.90170       -3.83030
H          3.98410        3.57120       -2.95100
H          1.09580       -3.56480       -1.80100
H          2.52100       -2.87750       -1.00240
