16
TSA8_9_Cl_NH2_Cl
C          2.98830       -0.54370       -1.40940
C          1.43110       -0.43090       -1.50360
Cl         3.62220        0.66200       -0.24500
H          3.28140       -1.53690       -1.00510
N          0.81790       -1.75420       -1.58340
C          3.57540       -0.33550       -2.80940
C          3.16440        1.03730       -3.36670
C          1.78750        1.46650       -2.82920
O          0.96470        0.34190       -2.61320
Cl         5.34880       -0.54000       -2.85380
H          3.13390       -1.11450       -3.46810
H          3.88310        1.84630       -3.11030
H          1.31190        2.15730       -3.55540
H          1.88300        2.04390       -1.88190
H          1.17640       -2.26170       -2.42470
H          1.05810       -2.29920       -0.72420
