20
TSA8_9_CHF2_F_CH2F
C          1.38050        1.14980        2.36120
C          1.11600        1.69240        0.94280
C          1.34090       -0.39510        2.32100
H          2.40910        1.44120        2.66750
F          1.41610        3.04280        0.83090
C          0.35220        1.82080        3.31690
C         -1.07140        1.60540        2.78650
C         -1.14520        2.09440        1.33430
O         -0.20870        1.41810        0.51060
C          0.46700        1.38470        4.78270
H          0.55280        2.91620        3.29730
H         -1.35370        0.53220        2.83700
H         -1.00080        3.19660        1.27870
H         -2.16630        1.89210        0.95010
F          2.25430       -0.85530        1.38800
F          1.68550       -0.93350        3.54610
H          0.33830       -0.76900        2.02970
F         -0.40270        2.12690        5.56250
H          1.50150        1.55950        5.14730
H          0.21070        0.31380        4.90870
