17
TSA8_9_F_Br_CHF2
C          1.75120        0.06280       -0.11960
C          1.42040        0.99160       -1.03660
F          1.99610        0.36180        1.18240
H          1.80800       -0.97880       -0.41430
Br         1.06350        0.40300       -2.82080
C          3.98590        4.15350        0.23210
C          3.26740        3.02580        0.33710
C          1.76090        3.03710        0.31070
O          1.30760        2.32880       -0.78750
C          5.48420        4.11880        0.22750
H          3.48770        5.11420        0.13840
H          3.78170        2.07360        0.42660
H          1.38880        4.07960        0.21860
H          1.33840        2.62830        1.25040
F          5.95100        3.56650        1.40750
F          5.93400        3.36900       -0.84210
H          5.87870        5.15260        0.13250
