19
TSA8_9_OMe_OH_I
C          0.71480       -1.20090       -0.67250
C          1.72310       -1.20530        0.45880
O          1.38320       -0.99330       -1.90580
H         -0.06100       -0.41800       -0.49360
O          1.62390       -0.32210        1.47500
C         -0.03160       -2.54720       -0.73880
C         -0.79030       -2.81310        0.53770
C         -0.54290       -3.88350        1.29840
O          2.64140       -2.01040        0.45540
I         -1.44200       -2.53830       -2.35300
H          0.70040       -3.36120       -0.94100
H         -1.56020       -2.11250        0.84820
H          0.21950       -4.60560        1.02270
H         -1.10830       -4.04170        2.21090
C          1.62520        0.38250       -2.11210
H          2.13370        0.50360       -3.09020
H          2.30690        0.79350       -1.33560
H          0.67550        0.95900       -2.16860
H          0.91220        0.33270        1.51370
