19
TSA8_9_OMe_OH_I
C          0.43100       -1.10250       -0.88090
C          1.10720       -1.08060        0.51560
O          1.37590       -0.85880       -1.90700
H         -0.38150       -0.33550       -0.86960
O          0.28980       -0.48530        1.48460
C         -0.22230       -2.47420       -1.14370
C         -0.78830       -3.00380        0.16440
C          0.41280       -3.25810        1.10900
O          1.51840       -2.36520        0.94130
I         -1.71280       -2.34370       -2.67350
H          0.54400       -3.20630       -1.48590
H         -1.48050       -2.23960        0.58190
H          0.79400       -4.26810        0.84980
H          0.07890       -3.29110        2.16760
C          1.58920        0.52810       -2.05660
H          2.36640        0.68030       -2.83320
H          1.97300        0.98440       -1.11740
H          0.66760        1.04020       -2.41150
H          0.79050        0.31940        1.77240
