17
TSA8_9_CN_H_NH2
C          1.63340        0.02100        0.03420
C          1.86610       -1.25240        0.39330
C          1.67490        0.52830       -1.31870
H          1.37040        0.72340        0.81720
H          1.78850       -1.50060        1.44540
C          3.75090       -3.09990       -3.21380
C          2.99860       -2.15110       -2.65170
C          1.85060       -2.48600       -1.74670
O          2.22550       -2.25900       -0.44120
N          4.87640       -2.74860       -3.99650
H          3.53230       -4.14830       -3.03540
H          3.25570       -1.11020       -2.81610
H          1.60350       -3.56740       -1.79950
H          0.93770       -1.92440       -2.03960
N          1.69960        0.96740       -2.39000
H          5.13020       -1.76030       -4.14600
H          5.49480       -3.48660       -4.35890
