20
TSA8_9_Me_Br_CCl3
C          1.57290        0.28430        2.39460
C          1.10200        0.93610        1.11090
C          1.88790       -1.19370        2.11660
H          2.53190        0.77540        2.66290
Br         2.12030        2.35200        0.32560
C          0.55210        0.55290        3.55690
C         -0.81630       -0.03160        3.24900
C         -1.89590        0.74010        3.08460
O          0.08280        0.56160        0.55190
C          1.01140        0.10650        4.98030
H          0.46840        1.66340        3.61070
H         -0.93000       -1.10750        3.16010
H         -1.83280        1.82090        3.16490
H         -2.85750        0.28740        2.86640
H          0.97210       -1.76100        1.84910
H          2.38360       -1.66790        2.98260
H          2.60490       -1.26980        1.27050
Cl         2.62210        0.76520        5.38080
Cl        -0.12200        0.75610        6.20030
Cl         1.04680       -1.66610        5.21780
