20
TSA8_9_Me_Br_CCl3
C          1.51990        0.47930        2.53760
C          0.96160        1.21580        1.30430
C          1.87000       -0.95920        2.12340
H          2.47540        0.96640        2.82900
Br         1.01340        3.16430        1.42980
C          0.48230        0.61260        3.69630
C         -0.89640        0.14300        3.20230
C         -1.26850        0.90320        1.92350
O         -0.30450        0.71560        0.89960
C          0.85900       -0.03340        5.06040
H          0.39650        1.70340        3.90310
H         -0.89740       -0.94800        2.99980
H         -1.42250        1.98300        2.13710
H         -2.24470        0.51700        1.56390
H          2.38780       -1.49340        2.94170
H          2.58000       -0.93550        1.26880
H          0.97420       -1.53170        1.80740
Cl         2.45570        0.54130        5.61320
Cl        -0.33170        0.46440        6.29640
Cl         0.86480       -1.82130        5.05200
