27
TSA8_9_Et_OMe_Me
C          2.96290       -1.02930       -1.14020
C          1.97320       -1.87880       -0.37220
C          2.60930        0.46520       -0.88390
H          3.96220       -1.23450       -0.69430
O          2.42780       -2.69130        0.61590
C          3.00240       -1.52740       -2.62330
C          1.79290       -1.07780       -3.41270
C          0.90410       -1.94320       -3.90840
O          0.78180       -1.84910       -0.65620
C          4.29310       -1.15740       -3.37010
H          3.03500       -2.64200       -2.57890
H          1.63930       -0.01600       -3.58530
H          1.01660       -3.01240       -3.75890
H          0.04960       -1.57940       -4.46960
C          3.55570        1.49560       -1.49050
H          2.63130        0.62240        0.21780
H          1.57710        0.68940       -1.23080
H          4.60390        1.29330       -1.18520
H          3.26930        2.50660       -1.13080
H          3.45970        1.52490       -2.59010
C          1.63390       -3.58440        1.30270
H          2.25040       -4.10990        2.06070
H          1.21580       -4.33710        0.60000
H          0.80730       -3.05050        1.81750
H          5.17540       -1.52910       -2.80610
H          4.41870       -0.07910       -3.54510
H          4.29610       -1.65050       -4.36570
