19
TSA8_9_NO2_H_CCl3
C          2.81910        1.42970       -0.97780
C          1.65290        0.50210       -1.22070
N          3.20130        1.38230        0.42470
H          3.65570        1.02610       -1.59010
H          1.77330       -0.34420       -1.89000
C          2.52250        2.87940       -1.49430
C          1.36110        3.52660       -0.75700
C          0.21790        3.84370       -1.37320
O          0.57650        0.67890       -0.67190
C          3.76260        3.82420       -1.47550
H          2.24510        2.76430       -2.56780
H          1.45210        3.75240        0.29980
H          0.07320        3.64420       -2.43020
H         -0.58700        4.30910       -0.81370
O          4.28000        0.97240        0.73340
O          2.34860        1.71760        1.36990
Cl         3.35130        5.38660       -2.24040
Cl         4.35710        4.17800        0.17290
Cl         5.11440        3.13790       -2.42070
