19
TSA8_9_NO2_H_CCl3
C          1.93080        0.08940       -0.11920
C          1.39700        0.40260       -1.33150
N          2.03300        0.86630        1.07650
H          2.32830       -0.92190       -0.05360
H          1.42820       -0.40730       -2.05450
C          2.47480        4.50500       -2.12700
C          2.15050        3.45600       -1.35150
C          0.76800        2.85230       -1.37710
O          0.82060        1.54590       -1.81270
C          3.85640        5.10630       -2.12250
H          1.72290        4.93540       -2.78350
H          2.90200        3.02430       -0.69800
H          0.13250        3.41120       -2.09680
H          0.23160        2.93690       -0.41760
O          2.55030        0.37240        2.03130
O          1.51300        2.06100        1.19930
Cl         3.92570        6.47190       -3.26580
Cl         4.27020        5.71140       -0.49720
Cl         5.06250        3.89250       -2.62460
