19
TSA8_9_NO2_H_CCl3
C          2.60450        1.70920       -1.00800
C          1.22640        1.03590       -1.18620
N          2.92710        1.73570        0.40670
H          3.36710        1.11100       -1.55430
H          1.24300       -0.05220       -1.40520
C          2.57260        3.12590       -1.65470
C          1.30080        3.89770       -1.24290
C          0.06240        2.97680       -1.25220
O          0.32540        1.78820       -1.97610
C          3.86870        3.97180       -1.52280
H          2.44530        2.93140       -2.74460
H          1.36620        4.42020       -0.26530
H         -0.79460        3.51970       -1.70010
H         -0.25040        2.73410       -0.20740
O          3.89800        1.16850        0.80820
O          2.13480        2.34460        1.26340
Cl         3.72650        5.45400       -2.50870
Cl         4.21120        4.47680        0.15630
Cl         5.28140        3.06780       -2.13500
