17
TSA8_9_Cl_Me_Br
C          2.94960       -0.88670       -1.42250
C          1.44430       -1.00520       -1.44640
Cl         3.42750        0.21510       -0.09460
H          3.35240       -1.89360       -1.17670
C          0.79370       -2.34160       -1.24270
C          3.60740       -0.47770       -2.76840
C          3.32510        0.93400       -3.23840
C          2.14740        1.32370       -3.73360
O          0.74230       -0.01610       -1.58330
Br         5.53830       -0.67340       -2.58760
H          3.31230       -1.19250       -3.56740
H          4.12850        1.66480       -3.21790
H          1.31590        0.63630       -3.83260
H          2.01690        2.34610       -4.07320
H          1.11640       -3.03960       -2.04330
H         -0.31330       -2.25200       -1.26960
H          1.09340       -2.75500       -0.25620
