17
TSA8_9_Cl_Me_Br
C          2.08730       -0.26200       -0.25540
C          1.49570       -0.92360       -1.28280
Cl         2.85600        1.32080       -0.31100
H          2.09000       -0.71720        0.73060
C          0.85980       -2.25970       -1.01210
C          4.14990       -0.04860       -4.53620
C          3.56120        0.13570       -3.34990
C          2.10560        0.51140       -3.23340
O          1.40870       -0.48210       -2.57380
Br         5.99420       -0.54180       -4.63250
H          3.59550        0.07120       -5.46200
H          4.14740        0.00090       -2.44730
H          1.66170        0.61560       -4.24670
H          1.97140        1.49210       -2.73950
H          1.34780       -3.02860       -1.64700
H         -0.21830       -2.21290       -1.26990
H          0.95390       -2.57360        0.04950
