17
TSA8_9_Cl_Me_Br
C          3.01810       -0.56000       -1.43120
C          1.45990       -0.63720       -1.54040
Cl         3.49970        0.94460       -0.58490
H          3.40820       -1.39120       -0.80410
C          0.97090       -2.06930       -1.32830
C          3.61090       -0.62500       -2.84340
C          3.06950        0.52350       -3.71050
C          1.65280        0.93280       -3.27090
O          0.93880       -0.18550       -2.79450
Br         5.55350       -0.65240       -2.85370
H          3.26840       -1.58070       -3.29610
H          3.70240        1.43640       -3.67150
H          1.12170        1.39130       -4.13020
H          1.68250        1.71840       -2.48270
H          1.37190       -2.74090       -2.11700
H         -0.13850       -2.09210       -1.36580
H          1.29170       -2.43990       -0.33200
