18
TSA8_9_NO2_NH2_F
C          0.54240       -1.31280       -0.48670
C          1.85730       -1.55580        0.22750
N          0.66630       -0.15340       -1.36120
H         -0.24240       -1.08200        0.26490
N          1.92530       -1.48910        1.57860
C          0.08900       -2.58030       -1.26140
C         -0.00680       -3.79790       -0.37230
C         -0.81040       -3.85250        0.69380
O          2.86320       -1.81600       -0.41600
F          0.98090       -2.85890       -2.28510
H         -0.90920       -2.38870       -1.71220
H          0.60270       -4.66550       -0.60950
H         -0.83810       -4.75150        1.30150
H         -1.43690       -3.01230        0.97230
O          0.95650        0.90790       -0.89550
O          0.44230       -0.24260       -2.65670
H          2.81760       -1.65550        2.06680
H          1.09020       -1.27130        2.14200
