22
TSA8_9_Cl_NO2_Et
C          3.19890       -0.07280        1.72290
C          1.73270        0.46770        1.66300
Cl         3.30650       -1.46330        0.60100
H          3.91070        0.69540        1.34950
N          1.71810        1.90750        1.48620
C          3.53170       -0.43790        3.18730
C          2.52490       -1.47790        3.72170
C          1.13290       -1.25840        3.10550
O          0.94340        0.10530        2.80190
C          5.00830       -0.78670        3.50720
H          3.33740        0.49750        3.76000
H          2.80400       -2.53360        3.52900
H          0.35630       -1.60860        3.81600
H          1.00000       -1.87140        2.18410
O          1.16960        2.61340        2.27740
O          2.24390        2.43500        0.40340
C          5.56990       -2.06550        2.87830
H          5.10150       -0.88920        4.61070
H          5.65040        0.06470        3.19370
H          4.99030       -2.95770        3.18640
H          6.61590       -2.20510        3.22400
H          5.60100       -1.99470        1.77560
