18
TSA8_9_H_CHF2_OH
C          1.86590        0.10820       -0.18320
C          1.55340        1.14590       -0.98440
H          2.18070        0.23180        0.84410
H          1.79560       -0.91270       -0.54640
C          1.09450        0.88960       -2.39300
C          2.65680        5.17500       -0.54790
C          3.14550        4.10110        0.09130
C          2.24570        2.98350        0.52990
O          1.61430        2.44750       -0.58060
O          3.46450        6.18220       -0.94610
H          1.59330        5.24600       -0.75550
H          4.20960        4.03270        0.30070
H          1.48090        3.38630        1.22710
H          2.86260        2.24040        1.07050
F         -0.17040        1.41830       -2.56820
F          1.96580        1.50310       -3.27370
H          1.06060       -0.19560       -2.63030
H          4.42030        6.17300       -0.79260
