18
TSA8_9_H_CHF2_OH
C          3.08420        1.91440       -0.86120
C          1.56980        1.54150       -0.78170
H          3.60720        1.48800        0.02290
H          3.56080        1.47790       -1.76560
C          0.94600        1.37250       -2.17050
C          3.22990        3.43540       -0.80120
C          2.61560        3.95970        0.51260
C          1.51430        3.01930        1.03490
O          0.77950        2.47470       -0.03930
O          4.57980        3.80340       -0.89630
H          2.66470        3.85160       -1.66440
H          3.36690        4.06110        1.32600
H          0.84230        3.57980        1.71670
H          1.95300        2.19320        1.64240
F         -0.35810        0.93240       -2.03810
F          0.94870        2.56710       -2.86710
H          1.51320        0.61250       -2.74780
H          4.59450        4.77250       -1.11180
