18
TSA8_9_CCl3_F_OH
C          1.78960        0.00510        0.00880
C          1.11100       -1.15200        0.12050
C          2.11240        0.77440       -1.25890
H          2.14850        0.45030        0.93330
F          0.92250       -1.67070        1.36590
C         -0.15200       -4.62880       -2.69070
C         -0.50700       -3.41740       -2.23630
C         -0.13980       -2.95070       -0.85820
O          0.61490       -1.80310       -0.95690
O         -0.48810       -5.03610       -3.93480
H          0.41550       -5.30600       -2.05980
H         -1.07630       -2.74700       -2.87430
H          0.43630       -3.73170       -0.31310
H         -1.07310       -2.73620       -0.29360
Cl         1.52400        0.06770       -2.79250
Cl         1.41010        2.40320       -1.11450
Cl         3.88000        0.93630       -1.38220
H         -0.99160       -4.47900       -4.54560
