18
TSA8_9_CCl3_F_OH
C          1.59550       -1.76850       -1.38530
C          1.26720       -1.87160        0.12140
C          1.51230       -0.28170       -1.87320
H          2.65910       -2.06100       -1.53300
F          1.71850       -3.06120        0.67560
C          0.72700       -2.83060       -2.11720
C         -0.75110       -2.69760       -1.74790
C         -0.88240       -2.71120       -0.21900
O         -0.11610       -1.67760        0.38040
O          0.90320       -2.78170       -3.50750
H          1.06940       -3.82790       -1.74920
H         -1.19210       -1.77640       -2.17160
H         -0.59710       -3.70500        0.19310
H         -1.94980       -2.56010        0.04090
Cl         1.97400       -0.12250       -3.59020
Cl        -0.07290        0.51480       -1.65710
Cl         2.69540        0.69380       -0.95560
H          0.55360       -3.63690       -3.87170
