22
TSA8_9_CHF2_CBr3_NO2
C          2.21590       -1.14360        1.36640
C          1.34170        0.09280        1.52100
C          2.28980       -1.53250       -0.13380
H          3.24240       -0.85980        1.68650
C          1.92550        1.40020        2.01770
C          1.73110       -2.27420        2.34390
C          0.42470       -2.89640        1.89940
C         -0.69740       -2.79220        2.61920
O          0.15230        0.02800        1.24220
N          2.71290       -3.33500        2.54110
H          1.59500       -1.79500        3.33880
H          0.39240       -3.45930        0.97260
H         -0.71750       -2.24430        3.55600
H         -1.61060       -3.26020        2.26550
F          3.10280       -2.62790       -0.34720
F          1.03770       -1.79340       -0.66260
H          2.71800       -0.68070       -0.70350
Br         3.30680        2.01790        0.80490
Br         0.58170        2.80050        2.14350
Br         2.69780        1.16730        3.78160
O          3.78530       -3.30130        2.01920
O          2.45300       -4.29800        3.39960
