23
TSA8_9_Et_Br_CH2F
C          2.56980       -0.18420        1.44890
C          1.27730        0.60820        1.47530
C          2.56370       -1.00430        0.12460
H          3.39080        0.56390        1.39210
Br         1.32120        2.51970        1.41980
C          2.71420       -0.93600        2.81800
C          1.77740       -2.11890        2.92900
C          0.78960       -2.16040        3.82890
O          0.19560        0.04270        1.52650
C          4.14790       -1.34510        3.21050
H          2.45700       -0.17770        3.59500
H          1.91190       -2.96320        2.25960
H          0.62040       -1.33840        4.51740
H          0.13860       -3.02700        3.87880
C          3.84850       -1.73300       -0.24800
H          2.38910       -0.27470       -0.69870
H          1.72060       -1.72810        0.10950
H          4.71690       -1.04180       -0.21390
H          3.75010       -2.12530       -1.28290
H          4.00820       -2.61650        0.38590
F          4.64850       -2.40160        2.48690
H          4.14610       -1.66410        4.27550
H          4.83330       -0.47570        3.12340
