23
TSA8_9_Et_Br_CH2F
C          1.72860        0.16920        0.18130
C          1.28820        0.74850        1.32850
C          1.97020       -1.28220       -0.15900
H          1.92560        0.84570       -0.64640
Br         1.08590        2.65150        1.29040
C          3.06190       -1.65650        4.46100
C          2.57380       -1.40550        3.23690
C          1.11120       -1.11680        3.00990
O          0.94300        0.15910        2.51290
C          4.52090       -1.92470        4.67370
H          2.40310       -1.66210        5.32500
H          3.25140       -1.39960        2.39200
H          0.57160       -1.16480        3.97990
H          0.61320       -1.86570        2.36700
C          3.40870       -1.48400       -0.62650
H          1.28880       -1.55610       -0.99270
H          1.77910       -1.98430        0.65680
H          3.62250       -0.84440       -1.50980
H          3.56030       -2.54550       -0.91660
H          4.12350       -1.23010        0.18360
F          4.90460       -3.04810        3.96430
H          4.71520       -2.09550        5.75350
H          5.11840       -1.05180        4.33640
