23
TSA8_9_Et_Br_CH2F
C          2.51440       -0.23980        1.68020
C          1.09090        0.40030        1.85130
C          2.47370       -1.25680        0.50620
H          3.20070        0.57190        1.35260
Br         1.23080        2.33230        2.00310
C          2.94560       -0.77390        3.07730
C          1.91190       -1.78130        3.62250
C          0.49450       -1.44160        3.14240
O          0.35610       -0.05080        2.98820
C          4.37420       -1.30920        3.24210
H          2.89440        0.12620        3.73190
H          2.11350       -2.83650        3.33750
H         -0.24090       -1.82180        3.88080
H          0.24560       -1.95220        2.18560
C          3.83230       -1.53160       -0.14740
H          1.86940       -0.80110       -0.31000
H          1.98120       -2.20580        0.79660
H          4.27910       -0.58150       -0.50990
H          3.68520       -2.20000       -1.02200
H          4.55500       -2.02010        0.51760
F          4.52610       -2.56440        2.68530
H          4.59120       -1.41610        4.32650
H          5.11010       -0.59710        2.81250
