16
TSA8_9_OH_OH_F
C          1.41500       -1.47320       -1.08330
C          1.03480       -1.30970        0.37250
O          0.92360       -0.38410       -1.82190
H          2.52870       -1.49360       -1.15220
O          1.98510       -1.27160        1.33140
C          0.95940       -2.79650       -1.74480
C         -0.53500       -3.00010       -1.84250
C         -1.30100       -3.30650       -0.79130
O         -0.13130       -1.14780        0.69170
F          1.46730       -2.80560       -3.03360
H          1.40560       -3.66490       -1.21260
H         -1.00530       -2.94380       -2.82020
H         -0.87990       -3.42650        0.20040
H         -2.36600       -3.46500       -0.92540
H          1.56160        0.36590       -1.69140
H          2.92500       -1.37500        1.12780
