16
TSA8_9_OH_OH_F
C          1.90150       -0.10080       -0.03590
C          1.23010       -1.24820        0.13170
O          1.94650        0.49500       -1.24520
H          2.41390        0.36000        0.80440
O          1.18300       -1.84310        1.34830
C         -0.43300       -4.44230       -2.81790
C         -0.71080       -3.29420       -2.19210
C         -0.14710       -2.96840       -0.84010
O          0.59440       -1.80970       -0.92730
F         -0.96610       -4.69480       -4.04150
H          0.21620       -5.18460       -2.36370
H         -1.36430       -2.57180       -2.67250
H          0.49620       -3.79610       -0.46570
H         -0.98980       -2.82110       -0.13050
H          2.42750        1.32500       -1.36700
H          1.62380       -1.47350        2.12700
