16
TSA8_9_OH_OH_F
C          1.51070       -1.47110       -1.37810
C          0.99950       -1.44490        0.07340
O          0.96760       -0.38680       -2.08560
H          2.62330       -1.41130       -1.40610
O          1.65340       -2.38270        0.88200
C          1.06840       -2.78510       -2.03310
C         -0.44560       -2.94180       -1.88750
C         -0.81610       -2.83780       -0.40210
O         -0.41170       -1.59230        0.14790
F          1.42530       -2.80540       -3.36990
H          1.56520       -3.63920       -1.52250
H         -0.96960       -2.14120       -2.45420
H         -0.38770       -3.68670        0.17630
H         -1.91920       -2.92050       -0.31330
H          1.46110        0.42210       -1.78870
H          2.10380       -1.84110        1.57820
