15
TSA8_9_OH_H_H
C          1.57760       -1.76310        0.96480
C          1.11580       -0.41240        1.53380
O          1.04830       -1.94080       -0.32460
H          2.69070       -1.80860        0.92590
H          1.60100       -0.17440        2.50780
C          1.07530       -2.87810        1.88590
C         -0.43560       -2.74440        2.08120
C         -0.74760       -1.32460        2.57240
O         -0.29740       -0.35620        1.63860
H          1.32930       -3.87700        1.47050
H          1.56870       -2.78160        2.87830
H         -0.96140       -2.92290        1.11770
H         -0.30610       -1.14270        3.57900
H         -1.84720       -1.22560        2.68490
H          1.66300       -1.47810       -0.95310
