20
TSA8_9_I_CCl3_CH2F
C          1.76130       -0.12820       -0.12980
C          1.53280       -1.03300       -1.11610
I          2.02000        1.97090       -0.34500
H          1.78120       -0.43040        0.90850
C          1.27480       -2.50270       -0.82010
C          2.12680       -1.04860       -5.25900
C          2.92000       -0.55780       -4.29280
C          2.34390        0.16200       -3.10960
O          1.49110       -0.69040       -2.43470
C          2.65390       -1.78460       -6.45970
H          1.05040       -0.91870       -5.18270
H          3.99800       -0.67580       -4.34830
H          1.77990        1.05280       -3.45910
H          3.19010        0.48150       -2.46660
Cl         2.51050       -3.47750       -1.65500
Cl         1.30270       -2.96500        0.90970
Cl        -0.32230       -2.95220       -1.46920
F          4.03440       -1.89130       -6.44460
H          2.34630       -1.24620       -7.37980
H          2.21740       -2.80490       -6.47800
