20
TSA8_9_I_CCl3_CH2F
C          2.67600       -1.53120       -2.47900
C          1.37470       -1.04900       -1.75120
I          4.33420       -0.41590       -1.67410
H          2.89610       -2.59380       -2.24270
C          0.57460       -2.18170       -1.08030
C          2.48810       -1.37110       -4.00300
C          2.12860        0.08480       -4.35350
C          1.26740        0.71630       -3.24770
O          0.51370       -0.28190       -2.59380
C          3.64970       -1.90170       -4.85440
H          1.60180       -1.99060       -4.26410
H          3.00950        0.74300       -4.51680
H          0.59850        1.48280       -3.68960
H          1.90230        1.25920       -2.50880
Cl        -0.00900       -3.36830       -2.27870
Cl         1.56940       -3.02230        0.13940
Cl        -0.83680       -1.49560       -0.23470
F          4.80780       -1.17370       -4.65260
H          3.37940       -1.83800       -5.93010
H          3.84230       -2.96730       -4.60800
