20
TSA8_9_OMe_Br_NO2
C          1.54070        0.16060       -0.06890
C          1.16990       -0.70440        0.87640
O          1.65850       -0.26340       -1.34940
H          1.71140        1.20370        0.18500
Br         0.94050       -0.08720        2.68250
C         -0.92760       -4.68530       -0.22650
C         -0.85070       -3.38220        0.08600
C          0.08240       -2.86630        1.14170
O          0.94860       -1.99370        0.52100
N         -1.78440       -5.16440       -1.25870
H         -0.31640       -5.40270        0.31570
H         -1.45410       -2.65600       -0.45020
H          0.66320       -3.68970        1.60920
H         -0.51810       -2.36320        1.93020
C          1.84590        0.59910       -2.40280
H          1.90550        0.01240       -3.34270
H          2.78600        1.17370       -2.27010
H          0.98270        1.29570       -2.47540
O         -2.44240       -4.41300       -1.91480
O         -1.81400       -6.45130       -1.52850
