20
TSA8_9_OMe_Br_NO2
C          0.51940       -1.62670       -0.77200
C          1.18780       -1.21070        0.56260
O          1.43030       -1.54160       -1.85240
H         -0.37390       -0.97720       -0.93570
Br         0.41520        0.36130        1.40800
C          0.00050       -3.07430       -0.66430
C         -0.77640       -3.18180        0.64610
C          0.20250       -2.95460        1.81700
O          1.40540       -2.27250        1.47220
N         -0.83110       -3.42350       -1.80000
H          0.86280       -3.77930       -0.61590
H         -1.56840       -2.39980        0.64770
H          0.51380       -3.96820        2.14400
H         -0.30700       -2.47810        2.68180
C          1.60190       -0.19550       -2.24440
H          2.21050       -0.17660       -3.17130
H          2.15800        0.37640       -1.47020
H          0.63430        0.29450       -2.49440
O         -1.82780       -2.80950       -2.03650
O         -0.48970       -4.42840       -2.57870
