20
TSA8_9_CBr3_H_CBr3
C          1.58050        2.29180        0.81520
C          1.65610        1.85670       -0.63720
C          1.61400        1.00670        1.72840
H          2.53390        2.82920        0.99160
H          2.53790        2.09880       -1.22240
C          0.40350        3.35010        0.95560
C         -0.88760        2.73320        1.44820
C         -1.97980        2.65180        0.68160
O          0.73470        1.26000       -1.17150
C          0.73330        4.67070        1.72770
H          0.23150        3.75220       -0.07060
H         -0.93380        2.34700        2.46140
H         -1.98310        3.02600       -0.33720
H         -2.88560        2.20340        1.07720
Br         0.15020       -0.24850        1.42270
Br         3.24750        0.01160        1.36210
Br         1.67690        1.33870        3.63010
Br         2.28370        5.56060        0.95860
Br        -0.73750        5.93020        1.52230
Br         1.02730        4.52120        3.63380
