20
TSA8_9_CBr3_H_CBr3
C          1.49220        2.60330        0.82020
C          1.07020        1.93050       -0.50700
C          1.92410        1.49970        1.85340
H          2.42860        3.16150        0.60250
H          1.08170        2.63560       -1.37030
C          0.36660        3.66510        1.13630
C         -1.03170        3.02210        1.07820
C         -1.19860        2.25480       -0.23750
O         -0.18270        1.28100       -0.39020
C          0.49890        4.60780        2.36600
H          0.40920        4.35920        0.26500
H         -1.20670        2.34990        1.93750
H         -1.21180        2.95410       -1.10460
H         -2.18530        1.74730       -0.22830
Br         0.50750        0.34920        2.52240
Br         3.22090        0.30970        1.01530
Br         2.91610        2.20160        3.36500
Br         2.23000        5.48860        2.40980
Br        -0.81090        6.03780        2.20410
Br         0.12160        3.77320        4.08360
