22
TSA8_9_CF3_NH2_CHF2
C          1.96500        0.13810       -0.10630
C          1.53920        0.04030       -1.40240
C          1.84130        1.17980        0.98780
H          2.51390       -0.72540        0.26500
N          1.85190       -1.16540       -2.08810
C          1.97750        4.04580       -2.98810
C          1.77570        3.12740       -2.03020
C          0.52350        2.28720       -1.99470
O          0.83470        0.95350       -2.14090
C          3.22850        4.87050       -3.03080
H          1.22870        4.20620       -3.75920
H          2.53540        2.97910       -1.26910
H         -0.13180        2.56470       -2.84780
H         -0.10390        2.45790       -1.10570
F          3.11370        1.54960        1.38140
F          1.15130        2.31680        0.67250
F          1.20620        0.59350        2.06710
H          1.55500       -1.29030       -3.06690
H          2.37700       -1.93010       -1.63780
F          3.34780        5.61200       -1.86960
F          4.33140        4.04750       -3.16910
H          3.18600        5.56280       -3.89780
