22
TSA8_9_CF3_NH2_CHF2
C          2.42430        1.44130       -1.30440
C          1.27140        0.44160       -1.66600
C          2.41660        1.71510        0.21950
H          3.40400        0.95570       -1.51510
N          1.81140       -0.79840       -2.21300
C          2.30480        2.68450       -2.23240
C          0.89030        3.29080       -2.17630
C         -0.17560        2.19070       -2.05330
O          0.31770        0.97820       -2.57880
C          3.38950        3.76340       -2.08850
H          2.42060        2.27400       -3.26160
H          0.73510        4.03030       -1.36140
H         -1.09130        2.50380       -2.59480
H         -0.49410        2.04730       -0.99500
F          3.52850        2.44550        0.59100
F          1.28150        2.39540        0.61750
F          2.46540        0.51140        0.90170
H          1.01610       -1.44360       -2.41940
H          2.40350       -1.25710       -1.48360
F          3.27950        4.44730       -0.89190
F          4.64780        3.19660       -2.18710
H          3.27360        4.50300       -2.90940
