22
TSA8_9_CF3_CN_OMe
C          2.66120        1.36020       -0.69310
C          1.32960        0.84650       -1.33790
C          2.39370        1.28090        0.84310
H          3.50210        0.66480       -0.91960
C          1.54430       -0.42520       -2.05570
C          2.99480        2.73780       -1.37150
C          1.84740        3.72670       -1.15290
C          0.50530        3.00820       -1.51230
O          0.71640        1.78780       -2.21070
O          4.35470        3.17420       -1.41560
H          2.89180        2.52800       -2.45630
H          1.80530        4.10560       -0.10560
H         -0.05980        3.68940       -2.17770
H         -0.15000        2.82790       -0.62830
F          3.53870        1.48190        1.58320
F          1.42790        2.18260        1.25490
F          1.90860        0.01330        1.14710
N          1.72350       -1.43470       -2.59750
C          4.82520        4.11380       -0.48150
H          5.06140        5.08730       -0.97790
H          5.80720        3.71870       -0.14060
H          4.17390        4.27200        0.39450
