20
TSA8_9_OMe_OH_CN
C          1.46760       -1.05220       -1.31770
C          1.94850       -1.27200        0.10300
O          2.10260        0.08450       -1.88240
H          0.37900       -0.89920       -1.14520
O          1.13640       -0.88020        1.11450
C          1.55780       -2.27670       -2.27620
C          1.40300       -3.58530       -1.54220
C          0.28920       -3.87130       -0.86980
O          2.97620       -1.88820        0.34490
C          2.78020       -2.32630       -3.09920
H          0.74190       -2.17810       -3.03110
H          2.22790       -4.29990       -1.53140
H          0.21460       -4.79920       -0.32070
H         -0.54070       -3.17250       -0.86700
C          1.15920        1.03110       -2.34580
H          1.56890        1.52090       -3.25130
H          0.97990        1.80020       -1.56430
H          0.19290        0.58300       -2.67170
H          1.32220       -1.06000        2.04550
N          3.69610       -2.35800       -3.80520
