20
TSA8_9_OMe_OH_CN
C          1.62380       -0.04200        0.03550
C          1.56200       -1.24670        0.77560
O          1.64810        0.01600       -1.32030
H          1.50620        0.88510        0.56630
O          1.35630       -1.20490        2.12560
C          1.33880       -3.61870       -3.20450
C          1.76790       -3.05340       -2.07480
C          0.88080       -2.85800       -0.88050
O          1.64990       -2.50920        0.22170
C          2.27710       -3.83350       -4.27960
H          0.31080       -3.94740       -3.30700
H          2.81000       -2.76520       -2.01640
H          0.37180       -3.81370       -0.65220
H          0.07060       -2.11370       -1.09770
C          0.90290        0.92570       -2.06980
H          1.44200        1.17060       -3.00560
H          0.72770        1.88920       -1.53690
H         -0.07430        0.45650       -2.34540
H          0.40820       -1.11870        2.33670
N          3.05320       -3.99130       -5.12370
