20
TSA8_9_OMe_OH_CN
C          1.38400       -1.18500       -1.31270
C          1.96510       -1.64030        0.04890
O          2.01940        0.00240       -1.76350
H          0.31050       -1.02590       -1.05030
O          1.74790       -0.64410        1.01700
C          1.44410       -2.31700       -2.38290
C          1.49160       -3.70310       -1.73410
C          0.74340       -3.65420       -0.40990
O          1.46110       -2.88690        0.54670
C          2.52590       -2.21950       -3.37840
H          0.50420       -2.22590       -2.96490
H          2.54020       -3.99240       -1.47930
H          0.65720       -4.69040       -0.02770
H         -0.28820       -3.25960       -0.54570
C          1.08960        0.93080       -2.28960
H          1.51980        1.38360       -3.20640
H          0.90540        1.73320       -1.54430
H          0.11900        0.48420       -2.60460
H          0.82990       -0.78560        1.37840
N          3.35870       -2.18060       -4.18160
