26
TSA8_9_CHF2_Et_CF3
C          1.63220       -0.04800       -0.16440
C          1.36780       -0.38280       -1.45550
C          1.87580        1.32070        0.42520
H          1.64430       -0.84560        0.57370
C          1.04240       -1.82090       -1.79090
C          2.26530        0.91340       -5.25250
C          2.98880        0.99980       -4.12780
C          2.36900        1.38720       -2.81820
O          1.36860        0.48490       -2.50480
C          2.89940        0.50230       -6.54840
H          1.20120        1.13380       -5.23060
H          4.05170        0.77360       -4.15090
H          1.94030        2.40880       -2.89620
H          3.17790        1.37840       -2.05500
F          3.16730        1.39530        0.91060
F          1.63890        2.36500       -0.44210
H          1.16950        1.45270        1.27130
C          2.03690       -2.38370       -2.80260
H          0.02160       -1.86290       -2.22720
H          1.05470       -2.46810       -0.88680
H          2.00860       -1.79680       -3.74520
H          1.77170       -3.43540       -3.03970
H          3.06640       -2.35740       -2.38660
F          3.44880       -0.76110       -6.42020
F          1.94460        0.47850       -7.54770
F          3.89260        1.40100       -6.89290
