26
TSA8_9_CHF2_Et_CF3
C          2.67070       -0.15710       -2.34780
C          1.13440       -0.15570       -2.04520
C          3.41140        0.54270       -1.18790
H          3.05010       -1.20220       -2.35180
C          0.55590       -1.54410       -1.73310
C          2.89220        0.43480       -3.76990
C          2.18600        1.79510       -3.92960
C          0.83650        1.80930       -3.19320
O          0.35190        0.49340       -3.04160
C          4.34430        0.48290       -4.27660
H          2.35500       -0.26780       -4.44760
H          2.78430        2.67030       -3.59660
H          0.11240        2.42550       -3.76440
H          0.92450        2.30270       -2.19730
F          4.78000        0.39820       -1.31030
F          3.09820        1.88620       -1.10490
H          3.12150        0.05740       -0.23130
C          0.53980       -2.46350       -2.95750
H         -0.48830       -1.41720       -1.37580
H          1.14420       -2.01590       -0.91760
H         -0.07270       -2.01720       -3.76940
H          0.09580       -3.44210       -2.67950
H          1.56540       -2.64390       -3.33970
F          4.93340       -0.76230       -4.14640
F          4.35020        0.83290       -5.61550
F          5.09000        1.41850       -3.58390
