17
TSA8_9_NO2_CN_H
C          1.43040       -1.74770        0.19750
C          2.54950       -1.78540        1.19580
N          1.84250       -1.01620       -0.99520
H          0.58700       -1.19880        0.67360
C          2.32790       -1.28850        2.53610
C          0.95810       -3.18810       -0.11970
C         -0.42120       -3.20260       -0.72500
C         -1.47980       -2.79660       -0.01050
O          3.61410       -2.34270        0.93150
H          1.69450       -3.69070       -0.78510
H          0.89470       -3.78600        0.81560
H         -0.56850       -3.57080       -1.73500
H         -1.36010       -2.44860        1.01340
H         -2.47720       -2.82090       -0.43310
O          2.19880        0.11980       -0.89940
O          1.84390       -1.58820       -2.18210
N          2.14000       -0.87860        3.59620
