17
TSA8_9_NO2_CN_H
C          1.37880       -1.83870       -0.30970
C          1.53830       -1.94970        1.24910
N          2.53710       -1.24980       -0.95940
H          0.48790       -1.23140       -0.59040
C          1.51230       -0.67700        1.98080
C          1.13700       -3.28350       -0.76840
C         -0.21970       -3.74040       -0.21130
C         -0.51570       -3.06970        1.14630
O          0.67960       -2.90470        1.88240
H          1.14670       -3.42860       -1.86810
H          1.94430       -3.92570       -0.34180
H         -1.04280       -3.44140       -0.89860
H         -1.25020       -3.67690        1.71230
H         -0.99660       -2.07260        1.00220
O          2.95230       -0.21630       -0.52980
O          2.66670       -1.44980       -2.25510
N          1.50030        0.31100        2.58310
