21
TSA8_9_CN_Me_CF3
C          2.79800       -1.60990        0.34640
C          1.59230       -1.33180        1.28150
C          2.45540       -0.78700       -0.86540
H          3.69060       -1.20340        0.83090
C          1.77650       -0.56950        2.55110
C          2.87940       -3.18840        0.06220
C          2.16780       -3.44490       -1.24540
C          0.88920       -3.74210       -1.30750
O          0.46920       -1.71920        0.98940
C          4.21410       -4.02550        0.06130
H          2.32460       -3.62390        0.91420
H          2.72120       -3.22800       -2.15900
H          0.31230       -3.87570       -0.40260
H          0.43120       -3.81100       -2.28280
N          2.14890       -0.13960       -1.76940
H          2.49750       -1.09580        3.21430
H          0.80460       -0.45630        3.09760
H          2.15690        0.44830        2.31320
F          5.30930       -3.32650        0.53170
F          4.03460       -5.13380        0.87840
F          4.52890       -4.53380       -1.19160
