21
TSA8_9_CN_Me_CF3
C          2.84520       -1.70880        0.08130
C          1.47900       -1.37060        0.77750
C          2.75170       -1.19470       -1.30030
H          3.67740       -1.16160        0.58040
C          1.68450       -0.89380        2.21560
C          3.01600       -3.25260        0.19080
C          1.88280       -3.92600       -0.59790
C          0.56190       -3.17180       -0.41460
O          0.55770       -2.46810        0.80920
C          4.35430       -3.95070       -0.12310
H          2.87250       -3.45870        1.27380
H          2.09890       -3.94460       -1.69400
H         -0.25200       -3.92310       -0.43320
H          0.36080       -2.46640       -1.25350
N          2.67260       -0.75740       -2.36970
H          2.21500       -1.66150        2.81800
H          0.69690       -0.69410        2.68320
H          2.26900        0.04970        2.22330
F          5.40360       -3.32350        0.52080
F          4.27120       -5.25010        0.36160
F          4.61500       -4.01020       -1.47950
