29
TSA8_9_Et_Et_CBr3
C          1.45830       -0.08070        0.33950
C          1.93340       -1.04620        1.16770
C          2.15370        1.19730       -0.05800
H          0.48720       -0.23590       -0.12020
C          1.11860       -2.29880        1.38610
C          5.05870       -0.43330        4.52540
C          3.84240       -0.38630        3.95970
C          3.62860        0.07970        2.55060
O          3.12050       -0.98260        1.82950
C          5.25360       -0.93110        5.93420
H          5.92710       -0.11750        3.95380
H          2.97180       -0.71170        4.52300
H          4.58310        0.40670        2.08570
H          2.92160        0.93480        2.58430
C          1.32610        2.40510        0.36930
H          2.25640        1.20360       -1.16440
H          3.17350        1.28480        0.35430
H          0.31490        2.36400       -0.08940
H          1.82810        3.33820        0.03650
H          1.22210        2.43010        1.47490
C          0.95870       -3.11430        0.10580
H          0.12120       -2.02830        1.79470
H          1.63360       -2.94060        2.13540
H          0.41420       -2.53710       -0.67040
H          0.37980       -4.03600        0.32650
H          1.95550       -3.40590       -0.28720
Br         7.13460       -0.89020        6.39780
Br         4.28990        0.18630        7.19320
Br         4.63090       -2.76240        6.09900
