29
TSA8_9_Et_Et_CBr3
C          2.04810       -0.16890        2.17290
C          2.39200       -1.02920        0.92740
C          1.72220        1.25930        1.65300
H          1.10480       -0.58030        2.59400
C          2.20990       -2.55510        1.08850
C          3.22740       -0.34720        3.19640
C          4.56030       -0.02300        2.49990
C          4.71010       -0.85030        1.22120
O          3.62580       -0.64930        0.32920
C          3.15950        0.31840        4.60240
H          3.22790       -1.43480        3.42500
H          4.61310        1.05560        2.24400
H          4.84630       -1.92600        1.45500
H          5.64390       -0.52900        0.71510
C          0.84740        2.10650        2.57980
H          1.08990        1.14540        0.74120
H          2.63770        1.80130        1.34550
H         -0.10430        1.57650        2.79680
H          0.60540        3.06440        2.07400
H          1.32250        2.34980        3.53280
C          2.36560       -3.26860       -0.25010
H          1.18660       -2.75530        1.47170
H          2.92910       -2.98630        1.81290
H          1.61820       -2.88590       -0.97680
H          2.20290       -4.35890       -0.11140
H          3.38670       -3.11390       -0.65810
Br         4.46420       -0.55090        5.75400
Br         3.64250        2.20660        4.66350
Br         1.43060        0.03680        5.44300
