15
TSA8_9_I_Br_OH
C          2.96080        1.36130       -1.07940
C          1.46580        1.28080       -1.24840
I          3.55020        0.00990        0.48910
H          3.41070        0.97470       -2.01930
Br         0.72330        0.70630       -2.91510
C          3.53270        2.79640       -0.88710
C          3.12890        3.51650        0.38820
C          1.89790        3.98510        0.61210
O          0.71210        1.50910       -0.31680
O          4.93700        2.74790       -0.97050
H          3.20030        3.42490       -1.74210
H          3.88630        3.70730        1.14360
H          1.10650        3.87900       -0.11940
H          1.68080        4.51140        1.53590
H          5.28360        2.28000       -0.16710
