15
TSA8_9_I_Br_OH
C          1.92930        0.13570       -0.21650
C          1.41370        1.00430       -1.11520
I          2.77230        0.46900        1.70580
H          1.90940       -0.91930       -0.47110
Br         0.69560        0.26570       -2.72810
C          4.09370        4.35290       -0.83010
C          3.46430        3.23670       -0.43310
C          1.98610        3.22040       -0.13240
O          1.33410        2.36210       -0.99410
O          5.41740        4.34960       -1.10420
H          3.54490        5.28320       -0.93980
H          4.03120        2.31720       -0.33280
H          1.56060        4.23510       -0.28380
H          1.78140        2.95730        0.92120
H          5.96080        3.55170       -1.03150
