23
TSA8_9_Et_CN_NH2
C          1.36770        1.23620        1.08170
C          2.08910        1.61670       -0.20220
C          1.94540       -0.00330        1.83490
H          0.35820        0.89740        0.76590
C          1.53890        1.20080       -1.47530
C          1.07420        2.44440        2.02460
C          0.37890        3.58560        1.29750
C         -0.79830        3.41460        0.68790
O          3.01150        2.41790       -0.18620
N          2.30040        2.89910        2.70240
H          0.35650        2.09170        2.80190
H          0.82450        4.57700        1.27570
H         -1.27690        4.24630        0.18340
H         -1.29510        2.45050        0.68730
C          3.39450       -0.40560        1.54530
H          1.33200       -0.89320        1.57380
H          1.81810        0.14930        2.92750
H          3.48550       -0.79570        0.50680
H          3.66870       -1.23640        2.23370
H          4.10200        0.43260        1.69820
N          1.07780        0.90360       -2.49320
H          2.24130        2.61850        3.71200
H          2.38870        3.94140        2.71670
