23
TSA8_9_Et_CN_NH2
C          1.60880        0.05640       -0.12920
C          1.38310        1.25150       -0.73550
C          1.79050       -0.17720        1.34720
H          1.68570       -0.83160       -0.75330
C          1.26580        1.26940       -2.17660
C          0.87050        3.33010        3.14470
C          0.86050        3.68250        1.85360
C          0.29250        2.77490        0.80940
O          1.28560        2.43760       -0.09940
N          1.40280        4.19250        4.13230
H          0.47520        2.36520        3.44970
H          1.26570        4.64440        1.54690
H         -0.50250        3.32130        0.26270
H         -0.16620        1.87920        1.25780
C          3.21780       -0.64800        1.59350
H          1.07060       -0.96000        1.67660
H          1.62700        0.72690        1.96000
H          3.44480       -1.54850        0.98370
H          3.36190       -0.89160        2.66600
H          3.91940        0.16760        1.31360
N          1.17470        1.28280       -3.32020
H          1.42700        3.88480        5.11410
H          1.76910        5.12360        3.88550
