19
TSA8_9_H_NH2_CHF2
C          2.00240       -0.14670       -0.11340
C          1.52650       -1.05880       -0.97710
H          2.24040        0.86570       -0.42240
H          2.14280       -0.39560        0.93380
N          1.19620       -2.35800       -0.51060
C          3.11950       -2.07650       -4.17970
C          3.34220       -0.94110       -3.49560
C          2.19110       -0.05700       -3.10260
O          1.32350       -0.76820       -2.29030
C          4.23530       -2.99010       -4.58720
H          2.10410       -2.35180       -4.44990
H          4.35320       -0.65210       -3.22580
H          1.65420        0.24380       -4.02720
H          2.55080        0.86810       -2.60890
H          0.85170       -3.06660       -1.17440
H          1.33380       -2.62250        0.47380
F          5.12640       -2.31540       -5.40160
F          4.89510       -3.45900       -3.46680
H          3.81860       -3.85300       -5.14600
