21
TSA8_9_CHF2_CH2F_CN
C          1.61270       -0.10960        0.00790
C          1.38100       -1.45100        0.19040
C          1.70580        0.86410       -1.15430
H          1.76400        0.45130        0.92270
C          1.75270       -1.99830        1.55840
C          1.49370       -4.04930       -3.41160
C          1.60260       -2.84450       -2.84690
C          0.49470       -2.28510       -2.01140
O          0.96660       -2.38350       -0.71930
C          2.68130       -4.67690       -3.92600
H          0.55730       -4.59800       -3.39260
H          2.56310       -2.33200       -2.86120
H         -0.42420       -2.90690       -2.12380
H          0.14870       -1.27410       -2.25690
F          2.98900        1.35090       -1.02860
F          1.59660        0.33580       -2.41810
H          1.03080        1.75540       -1.08170
F          1.06220       -3.15870        1.83770
H          1.58900       -1.24590        2.34820
H          2.85160       -2.24160        1.60280
N          3.65820       -5.14780       -4.32820
