21
TSA8_9_CHF2_CH2F_CN
C          2.30880       -1.52550       -1.04420
C          1.06900       -1.68800       -0.08540
C          2.32840       -0.11730       -1.70450
H          3.23540       -1.57700       -0.43030
C          1.49510       -2.20470        1.30370
C          2.26840       -2.73380       -2.01730
C          0.95270       -2.75380       -2.82340
C         -0.19600       -2.18990       -1.96990
O          0.02460       -2.50900       -0.61480
C          3.44810       -2.91320       -2.87380
H          2.23380       -3.63670       -1.37040
H          0.97620       -2.20130       -3.78940
H         -1.16780       -2.60240       -2.31200
H         -0.28320       -1.08450       -2.08840
F          3.58800        0.44410       -1.58360
F          1.99450       -0.13760       -3.04540
H          1.62320        0.56230       -1.17790
F          0.56550       -3.09000        1.81930
H          1.58720       -1.33680        1.98920
H          2.47530       -2.72850        1.27820
N          4.36280       -3.08600       -3.56170
