18
TSA8_9_CCl3_CN_F
C          1.33150       -0.96170       -1.42880
C          2.26000       -1.85960       -0.64090
C          1.73730        0.56450       -1.49740
H          0.39900       -0.98570       -0.83450
C          1.67540       -2.71100        0.36820
C          0.94040       -1.65460       -2.76620
C         -0.45400       -1.22910       -3.16940
C         -1.50270       -1.58000       -2.40560
O          3.41290       -2.05080       -0.99700
F          1.86910       -1.40160       -3.76180
H          0.88300       -2.76000       -2.63550
H         -0.61770       -0.63950       -4.06430
H         -1.35900       -2.19020       -1.51380
H         -2.51000       -1.27250       -2.65250
Cl         1.31220        1.37240       -3.03860
Cl         0.87380        1.46800       -0.21980
Cl         3.48230        0.86630       -1.24640
N          1.19040       -3.37830        1.18100
