18
TSA8_9_CCl3_CN_F
C          1.23250       -0.75450       -1.83990
C          1.18590       -1.97610       -0.85590
C          2.10620        0.51290       -1.59390
H          0.27850       -0.21290       -1.77890
C          1.39740       -1.78130        0.57890
C          1.20650       -1.49470       -3.20060
C         -0.25820       -1.94980       -3.36510
C         -0.85980       -2.38320       -1.98940
O          0.14630       -2.93490       -1.14110
F          1.60790       -0.76260       -4.29910
H          1.85090       -2.41150       -3.18340
H         -0.86200       -1.06940       -3.70580
H         -1.70800       -3.07540       -2.15450
H         -1.33530       -1.52360       -1.45340
Cl         1.95660        1.62750       -2.99020
Cl         1.40030        1.43440       -0.21950
Cl         3.82640        0.25590       -1.25060
N          1.56220       -1.67570        1.71910
