22
TSA8_9_NH2_CH2F_CCl3
C          2.93740       -0.45800        1.26040
C          1.59150        0.23780        1.35120
N          3.06830       -1.13970       -0.03120
H          3.71310        0.33580        1.30640
C          1.52940        1.73220        1.49490
C          3.17130       -1.42160        2.46970
C          2.18590       -2.57890        2.45730
C          1.28370       -2.75500        3.42760
O          0.55610       -0.41090        1.30380
C          4.63060       -1.95950        2.56880
H          3.00850       -0.81210        3.38840
H          2.21200       -3.29460        1.64150
H          1.21750       -2.06960        4.26650
H          0.60010       -3.59670        3.38360
H          2.29400       -1.82920       -0.17040
H          3.01120       -0.43350       -0.80100
F          0.21730        2.16760        1.56400
H          2.02260        2.20760        0.62170
H          2.05970        2.03620        2.42180
Cl         4.82140       -2.94080        4.05020
Cl         5.10220       -2.98360        1.18100
Cl         5.80480       -0.61870        2.69600
