21
TSA8_9_CCl3_CN_CBr3
C          1.43850       -0.03350       -2.21020
C          2.21950       -1.34270       -2.18800
C          2.00270        1.13080       -1.27890
H          0.60140       -0.40690       -1.59270
C          2.69310       -1.88260       -0.93370
C          0.62640        0.29610       -3.53610
C         -0.51450        1.23390       -3.18720
C         -1.55530        0.81920       -2.46330
O          2.20040       -2.09540       -3.15230
C          1.24580        0.70460       -4.92510
H          0.16380       -0.68290       -3.79260
H         -0.48600        2.27410       -3.49790
H         -1.62180       -0.21300       -2.13410
H         -2.34160        1.51350       -2.19830
Cl         1.84060        2.78130       -1.91950
Cl         1.10350        1.14600        0.27930
Cl         3.73290        0.96880       -0.85480
N          3.03810       -2.33050        0.07580
Br        -0.13530        0.41270       -6.28110
Br         1.78120        2.56070       -5.14570
Br         2.74800       -0.37740       -5.49100
