21
TSA8_9_CCl3_CN_CBr3
C          1.88170       -0.00610       -0.11710
C          1.66460       -0.93520       -1.09480
C          1.70210        1.49140        0.07420
H          2.36950       -0.41300        0.76900
C          2.24610       -2.23360       -0.84000
C         -0.12140        0.34160       -5.29590
C          0.53360        0.55000       -4.13830
C          0.05460       -0.02670       -2.83630
O          1.03300       -0.84800       -2.31030
C          0.37970        0.91380       -6.59600
H         -1.03510       -0.24960       -5.30230
H          1.43840        1.14920       -4.13300
H         -0.85570       -0.63910       -3.00890
H         -0.25420        0.75430       -2.15010
Cl         1.15650        2.52160       -1.26260
Cl         0.70270        1.82440        1.51370
Cl         3.34310        2.08000        0.43630
N          2.75840       -3.25000       -0.63170
Br        -0.83130        0.46920       -8.04350
Br         0.50450        2.84620       -6.48170
Br         2.12480        0.17970       -7.01950
