24
TSA8_9_Et_CBr3_CN
C          1.57290        0.09570       -0.01950
C          1.36670        1.46720       -0.33490
C          1.65950       -0.70230        1.29620
H          1.48620       -0.64150       -0.84010
C          1.30170        1.92190       -1.80600
C          1.69590        3.43070        3.74070
C          1.65430        2.43810        2.84470
C          0.56730        2.33800        1.80610
O          1.12170        2.50920        0.55310
C          2.85930        3.59900        4.57370
H          0.88970        4.15040        3.82470
H          2.48090        1.73750        2.79410
H         -0.20390        3.10330        1.96300
H          0.00940        1.37420        1.85980
C          3.09620       -1.15750        1.32260
H          1.03160       -1.63370        1.35110
H          1.43620       -0.14490        2.21600
H          3.32280       -1.79800        0.43420
H          3.29110       -1.73200        2.23350
H          3.79570       -0.29490        1.35320
Br         1.95560        0.62490       -3.11050
Br        -0.53670        2.33360       -2.14450
Br         2.30990        3.55750       -2.19650
N          3.80280        3.71640        5.23240
