21
TSA8_9_NH2_NO2_CH2F
C          2.96260        0.27110       -1.32130
C          1.48570       -0.12630       -1.36800
N          3.21660        1.25100       -0.25550
H          3.53820       -0.64750       -1.06950
N          1.04530       -1.14830       -2.15490
C          3.46530        0.80180       -2.69830
C          2.74950        2.07330       -3.10920
C          1.98450        2.13640       -4.20310
O          0.68090        0.47210       -0.66660
C          4.98420        1.03790       -2.69670
H          3.28220        0.01620       -3.46110
H          2.85890        2.96830       -2.50420
H          1.84190        1.27080       -4.84210
H          1.49050        3.06690       -4.46400
H          2.98050        0.82800        0.67170
H          2.63010        2.10660       -0.38160
O          1.80800       -1.78780       -2.81420
O         -0.23120       -1.47000       -2.16250
F          5.34630        2.02510       -1.79650
H          5.31670        1.34580       -3.71140
H          5.51330        0.09690       -2.43420
