21
TSA8_9_NH2_NO2_CH2F
C          3.05480        0.29950       -1.39310
C          1.52650        0.11220       -1.53730
N          3.33490        1.29740       -0.35420
H          3.52120       -0.65660       -1.06650
N          1.15100       -1.11370       -2.22560
C          3.64680        0.70190       -2.76160
C          2.91400        1.93720       -3.29190
C          1.41090        1.64390       -3.33770
O          0.88350        1.26990       -2.06820
C          5.16570        0.92110       -2.72190
H          3.45860       -0.13480       -3.47220
H          3.10770        2.82610       -2.65550
H          1.19910        0.87680       -4.10920
H          0.89340        2.56670       -3.67300
H          3.01120        0.92850        0.56840
H          2.82980        2.19410       -0.53410
O          1.54420       -2.16210       -1.81230
O          0.24620       -1.10410       -3.18110
F          5.50560        1.97780       -1.89520
H          5.53670        1.14020       -3.74590
H          5.67060        0.00010       -2.36000
