17
TSA8_9_CHF2_F_Cl
C          1.80020        0.00470        0.03140
C          1.10680        0.80170        0.86050
C          2.09700       -1.45520        0.27080
H          2.17870        0.43600       -0.89080
F          0.91270        2.10200        0.50480
C         -0.20000        0.64720        5.31800
C         -0.54630        0.29710        4.07440
C         -0.15090        1.11600        2.88070
O          0.60140        0.33800        2.02900
Cl        -0.68470       -0.34190        6.68580
H          0.38330        1.54360        5.50480
H         -1.13110       -0.60420        3.91470
H          0.43710        2.01020        3.18720
H         -1.07310        1.45560        2.36120
F          3.46640       -1.64210        0.28370
F          1.57070       -1.92810        1.45980
H          1.66380       -2.04610       -0.56220
