17
TSA8_9_CHF2_F_Cl
C          1.72100        0.00890        2.12510
C          1.14710        1.10790        1.21070
C          1.46900       -1.37040        1.47540
H          2.82240        0.13940        2.20590
F          1.56890        2.37620        1.58420
C          1.08600        0.19040        3.52630
C         -0.43960        0.20800        3.41970
C         -0.85240        1.27800        2.39950
O         -0.26960        1.03750        1.12760
Cl         1.62250       -1.02640        4.71830
H          1.40370        1.17880        3.92620
H         -0.82330       -0.78450        3.10280
H         -0.59590        2.29680        2.76690
H         -1.95680        1.25120        2.29430
F          2.06190       -1.40660        0.22520
F          2.01680       -2.38540        2.23730
H          0.38550       -1.56760        1.34520
