22
TSA8_9_CCl3_NH2_Me
C          1.43680       -0.37720        0.09410
C          2.05790       -1.07170        1.08540
C          2.00140       -0.10000       -1.28330
H          0.45600        0.03500        0.29100
N          3.36390       -1.60800        0.91910
C         -0.68970       -2.49180        4.61050
C         -0.16720       -2.54340        3.37760
C          0.10860       -1.30440        2.57770
O          1.46290       -1.26480        2.29670
C         -0.93460       -3.74340        5.39410
H         -0.93990       -1.53510        5.06170
H          0.07680       -3.50660        2.93500
H         -0.17150       -0.39160        3.14660
H         -0.50910       -1.35790        1.65770
Cl         2.28570       -1.61970       -2.17230
Cl         0.82950        0.86010       -2.22450
Cl         3.50940        0.85090       -1.18620
H          3.79920       -2.12360        1.69830
H          3.89770       -1.52350        0.04640
H          0.02500       -4.27900        5.55540
H         -1.63810       -4.40510        4.84610
H         -1.37300       -3.48860        6.38150
