22
TSA8_9_CCl3_NH2_Me
C          0.84170       -1.52400        1.40350
C          1.51400       -0.13650        1.76860
C          1.53640       -2.27600        0.21900
H         -0.17520       -1.28740        1.01970
N          2.96590       -0.20410        1.92690
C          0.66930       -2.30580        2.74200
C         -0.17470       -1.46030        3.72710
C         -0.26270        0.01900        3.32120
O          0.99200        0.51940        2.92500
C          0.06510       -3.71180        2.63730
H          1.67560       -2.42880        3.19270
H         -1.22220       -1.82210        3.82420
H         -0.63590        0.60230        4.18800
H         -1.00350        0.17540        2.50520
Cl         0.48340       -3.55290       -0.45670
Cl         1.82240       -1.15610       -1.14520
Cl         3.08690       -3.04140        0.67470
H          3.24230       -0.90840        2.64670
H          3.43820       -0.38160        1.01500
H          0.72440       -4.38390        2.05390
H         -0.94330       -3.67160        2.17280
H         -0.02580       -4.15860        3.65050
