14
TSA8_9_H_F_H
C          2.12250       -0.11870       -0.03400
C          1.23290       -0.94250       -0.58570
H          2.67190        0.59020       -0.64600
H          2.30640       -0.14830        1.03510
F          0.55860       -1.82130        0.20590
C         -1.03490       -0.79230       -4.62520
C         -0.88680       -0.77940       -3.29720
C          0.09480       -1.67310       -2.59660
O          1.01480       -0.89350       -1.92350
H         -1.75500       -0.13120       -5.09630
H         -0.44570       -1.45530       -5.25130
H         -1.49450       -0.10220       -2.70460
H          0.63930       -2.31490       -3.32250
H         -0.46790       -2.34000       -1.90810
