21
TSA8_9_CH2F_CBr3_OH
C          1.77870       -0.05740        0.15310
C          1.59190       -1.40050       -0.00350
C          1.90790        1.00320       -0.90730
H          1.88460        0.35120        1.14790
C          1.58170       -2.33960        1.19720
C          1.47910       -2.34130       -4.58790
C          1.66080       -1.57150       -3.50420
C          0.72440       -1.62060       -2.32690
O          1.41760       -2.03150       -1.20430
O          2.33340       -2.28800       -5.63400
H          0.63720       -3.02470       -4.64090
H          2.51110       -0.89800       -3.47300
H         -0.08630       -2.35810       -2.51150
H          0.21290       -0.65040       -2.17280
F          3.11120        1.66000       -0.73180
H          1.08470        1.73740       -0.78550
H          1.89800        0.63380       -1.93800
Br         1.84600       -1.54330        2.95970
Br        -0.11800       -3.26910        1.24950
Br         2.98240       -3.65880        0.96340
H          3.10390       -1.70140       -5.64600
