21
TSA8_9_CH2F_CBr3_OH
C          2.29440       -0.93160       -1.35220
C          1.14080       -1.56940       -0.49990
C          2.14060        0.60010       -1.38550
H          3.28750       -1.14870       -0.90110
C          1.61630       -2.35990        0.73380
C          2.26940       -1.54480       -2.76760
C          0.87660       -1.40820       -3.40770
C         -0.22770       -1.60380       -2.35520
O          0.25880       -2.37560       -1.27870
O          3.26080       -0.98520       -3.58800
H          2.47330       -2.63290       -2.63010
H          0.71000       -0.43360       -3.91570
H         -1.10150       -2.10000       -2.82520
H         -0.60450       -0.62270       -1.98180
F          2.20410        1.11840       -0.10520
H          1.17620        0.90460       -1.83970
H          2.96190        1.05110       -1.98140
Br         2.67140       -1.25640        1.93260
Br         0.07500       -2.97480        1.73680
Br         2.66530       -3.91110        0.21900
H          3.37920       -1.60520       -4.35440
