18
TSA8_9_CN_NO2_OH
C          1.66780       -0.06690       -0.05360
C          1.50120       -0.71800       -1.24120
C          1.84750        1.34780        0.14650
H          1.64510       -0.65760        0.85740
N          1.49510       -2.13260       -1.20640
C          3.30820        1.92320       -4.18420
C          2.79120        1.57100       -2.99960
C          1.35260        1.17740       -2.85820
O          1.30670       -0.14000       -2.46780
O          4.60030        2.30010       -4.30650
H          2.68960        1.91630       -5.07510
H          3.42580        1.55960       -2.11990
H          0.82060        1.28190       -3.83660
H          0.81070        1.83550       -2.14890
N          1.99150        2.48490        0.30210
O          1.90120       -2.75920       -2.13920
O          0.97570       -2.76040       -0.17720
H          5.20990        2.35210       -3.55630
