15
TSA8_9_CN_Cl_Br
C          2.17160       -1.56600       -0.22020
C          2.73340       -1.39250        1.15860
C          2.59180       -0.52590       -1.18020
H          1.10380       -1.35090       -0.01760
Cl         2.09630       -0.06210        2.12280
C          2.24750       -3.00480       -0.81910
C          0.93710       -3.23310       -1.52040
C         -0.15500       -3.42120       -0.76430
O          3.38650       -2.26660        1.70530
Br         3.76270       -3.35900       -1.99850
H          2.31710       -3.78220       -0.02380
H          0.85650       -3.16250       -2.59930
H         -0.05920       -3.47350        0.32230
H         -1.13760       -3.50610       -1.20210
N          2.86670        0.31240       -1.93030
