15
TSA8_9_CN_Cl_Br
C          1.64030       -0.02890        0.07850
C          1.72610       -0.98210        1.03350
C          1.73230       -0.26210       -1.34450
H          1.44290        0.99570        0.36260
Cl         1.50500       -0.51910        2.71400
C          2.32620       -4.82720       -1.48680
C          2.11970       -3.53500       -1.22570
C          1.23780       -3.07440       -0.10320
O          1.95480       -2.29800        0.78170
Br         3.44970       -5.32160       -2.95190
H          1.86230       -5.60370       -0.88540
H          2.59710       -2.79370       -1.85400
H          0.82380       -3.93460        0.46440
H          0.37860       -2.51070       -0.51980
N          1.80090       -0.41840       -2.48950
