18
TSA8_9_CN_CBr3_Br
C          2.09000       -1.37520       -0.95240
C          2.39860       -2.22900        0.26070
C          2.63210       -0.01660       -1.00770
H          1.01390       -1.19150       -0.76630
C          1.89490       -1.84180        1.63830
C          2.23720       -2.10020       -2.33400
C          0.99140       -1.83540       -3.12450
C         -0.17070       -2.30800       -2.64650
O          2.72660       -3.38840        0.08460
Br         3.84990       -1.62050       -3.34380
H          2.29230       -3.20830       -2.23450
H          1.01600       -1.25590       -4.03920
H         -0.17850       -2.90050       -1.72940
H         -1.10500       -2.12260       -3.15120
N          2.99290        1.08720       -1.05040
Br         2.24610       -0.00630        2.13000
Br        -0.03430       -2.12750        1.67920
Br         2.66690       -2.96660        3.02370
