18
TSA8_9_CN_CBr3_Br
C          1.64370       -0.06470        0.06650
C          1.62730       -1.39510        0.36230
C          1.76830        0.51770       -1.25150
H          1.50820        0.67090        0.84320
C          1.41170       -1.88340        1.78920
C          2.14520       -3.29290       -3.82630
C          1.99530       -2.31390       -2.93190
C          1.05220       -2.43780       -1.77200
O          1.74800       -2.36540       -0.58580
Br         3.34490       -3.07060       -5.29690
H          1.59070       -4.22120       -3.73440
H          2.56620       -1.40070       -3.05110
H          0.52160       -3.41450       -1.79020
H          0.27900       -1.64630       -1.83090
N          1.86380        1.02890       -2.28620
Br         1.74820       -0.56570        3.18260
Br        -0.42800       -2.47870        1.95570
Br         2.52450       -3.42000        2.18110
