18
TSA8_9_CN_CBr3_Br
C          2.50050       -1.16220       -0.96870
C          1.32500       -1.70730       -0.06370
C          2.12750        0.19300       -1.43590
H          3.44030       -1.05400       -0.39080
C          1.45260       -1.88930        1.47060
C          2.62360       -2.14590       -2.19320
C          1.26300       -2.25040       -2.87590
C          0.18430       -2.58090       -1.83610
O          0.76920       -2.89520       -0.59580
Br         3.95210       -1.89610       -3.58940
H          2.86840       -3.15510       -1.79880
H          1.02190       -1.29200       -3.39280
H         -0.35490       -3.47570       -2.19710
H         -0.55210       -1.75360       -1.71960
N          1.80290        1.23850       -1.81710
Br         1.93710       -0.29390        2.45190
Br        -0.30740       -2.41380        2.11790
Br         2.67850       -3.31630        1.96170
