24
TSA8_9_OH_Et_Me
C          1.58610       -0.08920       -0.33290
C          1.34110        1.19410       -0.66810
O          1.83470       -0.46510        0.94440
H          1.58540       -0.86110       -1.09660
C          1.03220        1.55640       -2.11110
C          4.31970        2.33810        1.85280
C          3.02740        2.69380        1.81520
C          2.35150        3.04160        0.52140
O          1.33480        2.13180        0.31400
C          4.97700        1.93910        3.13490
H          4.91020        2.31800        0.94050
H          2.43910        2.70300        2.73040
H          3.09710        3.00640       -0.30060
H          1.93110        4.06780        0.56920
H          1.84110        0.15150        1.69170
C          2.01750        2.55090       -2.71580
H          0.00930        1.98530       -2.16370
H          1.04880        0.64370       -2.74700
H          1.96230        3.52790       -2.19380
H          1.75650        2.72550       -3.78100
H          3.05200        2.14880       -2.66640
H          4.45930        1.05170        3.55790
H          4.93740        2.77490        3.86390
H          6.03760        1.67370        2.94170
