23
TSA8_9_OMe_NH2_CF3
C          0.60840       -1.51920        0.63020
C          1.45500       -0.41900        1.24570
O          1.40910       -2.30380       -0.23700
H         -0.26080       -1.07910        0.08300
N          1.12960        0.88330        1.07180
C          0.01350       -2.42320        1.74420
C         -0.86370       -1.59560        2.66300
C         -0.59410       -1.45080        3.96380
O          2.44430       -0.71230        1.90150
C         -0.82080       -3.58800        1.17060
H          0.85510       -2.87070        2.32180
H         -1.73950       -1.10110        2.25170
H          0.27150       -1.92500        4.41530
H         -1.24660       -0.84820        4.58740
C          1.61030       -1.64070       -1.46850
H          2.09340       -2.35020       -2.17090
H          2.29680       -0.77550       -1.34420
H          0.65230       -1.33390       -1.94420
H          1.70860        1.62630        1.48960
H          0.30080        1.15210        0.52220
F         -1.87460       -3.10830        0.41140
F         -0.03540       -4.40770        0.37960
F         -1.32900       -4.35220        2.20720
