23
TSA8_9_OMe_NH2_CF3
C          1.59000        0.10680       -0.14650
C          1.24580        0.06280        1.14390
O          1.69180       -1.04830       -0.84910
H          1.75830        1.06260       -0.63770
N          1.09550        1.26690        1.88920
C         -0.77150       -3.74800        2.87950
C         -0.71310       -2.58380        2.21880
C          0.11340       -1.42880        2.70220
O          1.03430       -1.14900        1.71550
C         -1.56660       -4.90170        2.34100
H         -0.22940       -3.87360        3.81270
H         -1.25960       -2.46580        1.28640
H          0.64740       -1.68100        3.64410
H         -0.56100       -0.56650        2.89120
C          1.88680       -1.07370       -2.20790
H          1.92940       -2.13000       -2.54770
H          2.84210       -0.56920       -2.47110
H          1.04050       -0.57030       -2.72190
H          0.86850        1.24180        2.89290
H          1.25420        2.18390        1.44700
F         -2.89410       -4.53920        2.20060
F         -1.06110       -5.27860        1.11060
F         -1.47930       -5.97270        3.21060
