20
TSA8_9_CBr3_I_Me
C          1.73910       -1.91820        0.93440
C          3.12010       -1.80060        1.58220
C          1.78270       -1.63580       -0.61050
H          1.17040       -1.06210        1.35900
I          4.79260       -3.06240        1.23160
C          0.97430       -3.20220        1.44250
C         -0.52930       -3.10410        1.25680
C         -1.26210       -2.15790        1.85590
O          3.31020       -0.89430        2.37840
C          1.45070       -4.53580        0.84730
H          1.13530       -3.26950        2.54250
H         -1.04720       -3.83320        0.63850
H         -0.80680       -1.41470        2.50220
H         -2.33640       -2.12940        1.70580
Br         0.01450       -1.51860       -1.40530
Br         2.59460        0.10460       -0.92330
Br         2.80040       -2.89860       -1.68490
H          2.52410       -4.70960        1.02510
H          1.23270       -4.59440       -0.23680
H          0.90690       -5.37420        1.33430
