27
TSA8_9_CHF2_Et_OMe
C          1.84420        0.11910        0.05150
C          1.50810        0.95480        1.06090
C          1.89920       -1.38770        0.13250
H          2.08940        0.54250       -0.91850
C          1.44870        2.44650        0.81780
C          4.13830        1.68250        3.62830
C          2.81740        1.49800        3.73010
C          2.15430        0.22760        3.27080
O          1.20320        0.48410        2.29780
O          4.68930        2.84090        4.06170
H          4.76400        0.90300        3.19960
H          2.19820        2.28150        4.15910
H          1.64890       -0.22960        4.14590
H          2.90040       -0.50210        2.88760
F          3.18670       -1.81170       -0.13520
F          1.50180       -1.88980        1.35720
H          1.21760       -1.80340       -0.63820
C          0.04120        2.97680        1.07150
H          1.73260        2.69820       -0.22730
H          2.16210        2.96130        1.49420
H         -0.68180        2.48980        0.38340
H          0.01770        4.07250        0.89280
H         -0.26590        2.78210        2.12120
C          6.03970        3.11390        3.99240
H          6.19560        4.02990        3.38620
H          6.61410        2.27980        3.53200
H          6.42900        3.29070        5.01620
