27
TSA8_9_CHF2_Et_OMe
C          2.96430        0.69660        1.12360
C          1.49300        1.13650        1.30380
C          3.03140       -0.79130        0.70170
H          3.40170        1.22110        0.24380
C          1.26880        2.65580        1.18220
C          3.81090        1.03870        2.38630
C          2.92760        1.21020        3.64250
C          1.67290        0.34160        3.58390
O          0.84120        0.57090        2.44410
O          4.50510        2.25350        2.14530
H          4.52920        0.19800        2.52690
H          2.58470        2.25870        3.73920
H          1.07870        0.56490        4.49370
H          1.94980       -0.72640        3.65230
F          4.34000       -1.14390        0.42050
F          2.53570       -1.65650        1.65290
H          2.43760       -0.92970       -0.22730
C         -0.21680        3.00040        1.20590
H          1.69110        2.99990        0.21380
H          1.77730        3.21660        1.98770
H         -0.74470        2.48150        0.37780
H         -0.34430        4.09670        1.07980
H         -0.66950        2.70290        2.17470
C          5.61010        2.38130        3.01420
H          6.14800        3.31600        2.75590
H          6.33460        1.54670        2.88360
H          5.28290        2.47580        4.07280
