24
TSA8_9_CH2F_OMe_CH2F
C          3.21910       -1.20690       -0.71490
C          2.16870       -1.69140        0.26070
C          2.84960        0.21860       -1.17800
H          4.17320       -1.13730       -0.14610
O          2.53440       -1.95800        1.54130
C          3.42220       -2.26570       -1.84780
C          2.20790       -2.40080       -2.74410
C          1.50470       -3.53460       -2.82430
O          1.00790       -1.83880       -0.09940
C          4.67070       -2.02520       -2.71430
H          3.61410       -3.23270       -1.32690
H          1.89630       -1.55330       -3.34770
H          1.77750       -4.40900       -2.24190
H          0.64230       -3.59080       -3.48090
F          3.86580        0.80150       -1.90700
H          2.68670        0.86090       -0.28540
H          1.91180        0.22170       -1.77150
C          1.67190       -2.43170        2.50600
H          2.22510       -2.55440        3.45940
H          1.26340       -3.41870        2.20010
H          0.83960       -1.71230        2.66440
F          4.54290       -0.91790       -3.53120
H          4.82980       -2.90610       -3.37310
H          5.57010       -1.91640       -2.07150
