24
TSA8_9_CH2F_OMe_CH2F
C          1.91000        0.01380       -0.02170
C          1.81860       -1.27050        0.41380
C          1.76630        0.60420       -1.39830
H          2.11480        0.76200        0.74190
O          1.99390       -1.45200        1.74620
C          3.80840       -3.57820       -2.56150
C          3.10550       -2.52160       -2.12410
C          1.67000       -2.65670       -1.69050
O          1.57330       -2.38840       -0.34080
C          5.24890       -3.44490       -2.94950
H          3.34420       -4.55790       -2.62320
H          3.58540       -1.55130       -2.05780
H          1.33060       -3.70420       -1.83710
H          0.96820       -2.05100       -2.28590
F          2.93150        1.27370       -1.72230
H          0.93400        1.33730       -1.37600
H          1.55160       -0.09700       -2.20500
C          2.07680       -2.69260        2.34150
H          2.21860       -2.56780        3.43360
H          2.94900       -3.24910        1.93190
H          1.14660       -3.27330        2.16050
F          5.37710       -2.55520       -4.00030
H          5.64280       -4.43560       -3.26220
H          5.83920       -3.08420       -2.08210
