24
TSA8_9_CH2F_OMe_CH2F
C          2.90990       -1.31120       -0.65850
C          1.55060       -1.73740       -0.02920
C          2.69150        0.00600       -1.42130
H          3.64640       -1.10830        0.15050
O          1.46500       -1.54060        1.36910
C          3.42940       -2.50140       -1.51300
C          2.35560       -2.99610       -2.50150
C          0.95200       -2.94900       -1.86970
O          1.04130       -2.99470       -0.46110
C          4.78840       -2.30430       -2.20000
H          3.57780       -3.32930       -0.78300
H          2.32820       -2.43730       -3.46200
H          0.34950       -3.80010       -2.24800
H          0.40710       -2.02850       -2.18970
F          3.88810        0.53410       -1.86600
H          2.24190        0.75560       -0.73500
H          2.00210       -0.13460       -2.27980
C          2.05010       -2.62670        2.05460
H          2.21090       -2.32770        3.11090
H          3.04890       -2.90160        1.65050
H          1.36530       -3.50170        2.05400
F          4.71550       -1.38920       -3.23390
H          5.12250       -3.27220       -2.63130
H          5.54780       -1.97550       -1.45920
