18
TSA8_9_Br_Cl_OMe
C          1.82190       -0.06990       -0.19670
C          1.50830        0.26890       -1.45260
Br         2.00340        1.24000        1.19000
H          1.97620       -1.11230        0.06190
Cl         1.33560       -0.98560       -2.67250
C          2.07270        1.85750       -4.65380
C          2.85890        1.94060       -3.56420
C          2.30750        2.39840       -2.24110
O          1.30090        1.56530       -1.79020
O          2.52120        1.45850       -5.87570
H          1.02340        2.12240       -4.56510
H          3.91260        1.68720       -3.61510
H          1.89800        3.42350       -2.36100
H          3.12380        2.43970       -1.48760
C          3.81630        1.09360       -6.18280
H          3.87190        0.82350       -7.25720
H          4.12040        0.21220       -5.57900
H          4.50870        1.94210       -5.99530
