18
TSA8_9_Br_Cl_OMe
C          2.29200        0.09330       -2.27410
C          0.96430        0.69480       -1.72250
Br         3.71740        0.22520       -0.94770
H          2.16980       -0.99760       -2.44950
Cl        -0.41610       -0.25440       -2.33850
C          2.65570        0.81730       -3.57540
C          2.81330        2.32870       -3.30670
C          1.92450        2.79550       -2.14010
O          0.72630        2.05440       -2.09520
O          3.83750        0.26590       -4.12830
H          1.77470        0.66010       -4.24410
H          3.85900        2.62150       -3.06560
H          1.70310        3.87540       -2.26220
H          2.45080        2.70670       -1.16420
C          3.89590        0.52410       -5.51460
H          3.05990        0.02710       -6.05450
H          4.83830        0.09270       -5.90970
H          3.92490        1.61600       -5.72330
