15
TSA8_9_CN_F_I
C          1.66550       -0.02440        0.09400
C          1.64030       -0.95190        1.07700
C          1.77030       -0.28340       -1.32400
H          1.58350        1.01990        0.37220
F          1.53850       -0.51430        2.35760
C          1.74010       -4.89560       -1.33820
C          1.69770       -3.58610       -1.09220
C          0.88510       -3.00660        0.02210
O          1.70330       -2.29630        0.87660
I          2.89120       -5.61700       -2.95160
H          1.18250       -5.59870       -0.72870
H          2.26110       -2.91410       -1.72510
H          0.36330       -3.80010        0.60410
H          0.09900       -2.35670       -0.40650
N          1.85160       -0.44170       -2.46830
