19
TSA8_9_F_CH2F_NH2
C          1.93000        2.19760        0.21810
C          0.81040        2.52410       -0.73760
F          1.49330        1.18980        1.05920
H          2.80950        1.81870       -0.34900
C          0.99900        2.35720       -2.21750
C          2.35440        3.44960        1.02230
C          3.45370        3.14430        2.02280
C          3.27210        2.32590        3.06500
O         -0.26050        2.92010       -0.30060
N          2.80360        4.49220        0.09470
H          1.47710        3.84030        1.58500
H          4.42270        3.62350        1.91080
H          2.32050        1.83830        3.24510
H          4.08490        2.14870        3.76150
F         -0.15430        2.70270       -2.90060
H          1.24790        1.29940       -2.44390
H          1.82930        3.00910       -2.56000
H          3.65740        4.17470       -0.42110
H          3.03730        5.36160        0.62790
