19
TSA8_9_F_CH2F_NH2
C          2.11070        0.38640       -0.17870
C          1.47310        1.57400       -0.15250
F          2.48560       -0.25730        0.95650
H          2.31750       -0.10450       -1.12450
C          1.03870        2.22470       -1.43530
C          2.69610        4.71430        1.16650
C          3.08830        3.50000        1.57980
C          2.07650        2.48490        2.03530
O          1.18350        2.22250        1.00840
N          3.63390        5.68170        0.73080
H          1.63900        4.96910        1.16060
H          4.14290        3.23930        1.58910
H          1.51650        2.90970        2.89400
H          2.57870        1.56440        2.38870
F         -0.32860        2.42360       -1.42000
H          1.30460        1.61650       -2.32600
H          1.54270        3.20960       -1.52370
H          4.64310        5.47820        0.71510
H          3.30320        6.60560        0.41700
