19
TSA8_9_F_CH2F_NH2
C          2.87810        2.35140       -0.27500
C          1.45920        1.75450       -0.00480
F          3.83780        1.57940        0.35920
H          3.11040        2.33300       -1.36220
C          0.51970        2.03770       -1.17930
C          2.91370        3.77770        0.28430
C          2.63280        3.75320        1.80220
C          1.77420        2.53630        2.19150
O          0.83040        2.24810        1.18380
N          4.17970        4.44520       -0.01580
H          2.09530        4.34460       -0.21060
H          3.55850        3.70110        2.41660
H          1.25880        2.74460        3.15170
H          2.40690        1.63760        2.37400
F         -0.70910        1.44860       -0.94560
H          0.94140        1.61080       -2.11350
H          0.37490        3.13030       -1.31440
H          4.97020        3.95750        0.46520
H          4.13900        5.43310        0.32570
