26
TSA8_9_CCl3_Et_CHF2
C          2.78270       -1.25670        0.50240
C          1.32590       -1.52310        0.87480
C          2.85940       -0.16400       -0.62280
H          3.25800       -0.78700        1.39030
C          0.79590       -1.18060        2.24630
C          3.50610       -2.64640        0.31090
C          2.96270       -3.47440       -0.83670
C          2.31830       -4.62900       -0.63880
O          0.56230       -2.00700        0.05240
C          5.04150       -2.60050        0.20250
H          3.31180       -3.19150        1.26370
H          3.10960       -3.14030       -1.85670
H          2.14920       -5.01650        0.36070
H          1.95250       -5.19650       -1.48880
Cl         2.17400       -0.67540       -2.19030
Cl         1.93930        1.28440       -0.11490
Cl         4.51350        0.43860       -0.89510
C          1.49050       -1.98770        3.34160
H         -0.29270       -1.40340        2.29120
H          0.93670       -0.09560        2.43600
H          1.33880       -3.07480        3.17080
H          1.05920       -1.71850        4.32850
H          2.57880       -1.77280        3.37010
F          5.46840       -2.12220       -1.02110
F          5.58370       -1.84380        1.22610
H          5.43490       -3.63600        0.29470
