26
TSA8_9_CCl3_Et_CHF2
C          1.78040       -0.17440        0.08800
C          1.33560       -1.30820        0.68760
C          2.01800        0.09780       -1.38650
H          1.99090        0.67900        0.72790
C          1.09510       -1.30970        2.18520
C          4.14670       -3.85160        0.76900
C          3.38280       -3.12940       -0.06240
C          1.93400       -3.46980       -0.32580
O          1.04750       -2.44540       -0.00260
C          5.58310       -3.49190        1.00790
H          3.73070       -4.71060        1.28710
H          3.81300       -2.27560       -0.57600
H          1.62690       -4.38460        0.22490
H          1.83740       -3.69770       -1.40640
Cl         1.56550       -1.19240       -2.53050
Cl         1.06830        1.53390       -1.83780
Cl         3.73970        0.47940       -1.62560
C          1.93950       -2.35100        2.90990
H          0.02110       -1.52790        2.36740
H          1.31820       -0.31660        2.63320
H          1.70520       -3.37110        2.54180
H          1.71550       -2.31610        3.99730
H          3.01860       -2.13680        2.76550
F          6.28790       -3.55090       -0.18120
F          5.66990       -2.21510        1.53200
H          6.03100       -4.20820        1.72750
