22
TSA8_9_Et_H_NO2
C          1.83890       -0.70060       -1.26880
C          0.36050       -0.78430       -0.95940
C          2.31050        0.75360       -0.99900
H          2.35930       -1.36010       -0.53710
H         -0.35330       -0.20180       -1.53400
C          2.07000       -1.27450       -2.70880
C          1.22100       -0.58150       -3.76060
C          0.27700       -1.23340       -4.44820
O         -0.04440       -1.49850       -0.05560
N          3.46030       -1.25750       -3.12750
H          1.75080       -2.34140       -2.64390
H          1.37940        0.47320       -3.96400
H          0.08300       -2.28810       -4.27790
H         -0.31340       -0.70870       -5.19220
C          3.79760        0.87520       -0.63830
H          1.79240        1.12390       -0.08540
H          2.02690        1.42730       -1.83470
H          4.01540        0.26190        0.26260
H          4.02950        1.93390       -0.39680
H          4.48640        0.56000       -1.43330
O          3.96390       -0.24670       -3.51470
O          4.09600       -2.39620       -3.30630
