20
TSA8_9_Cl_CBr3_CH2F
C          1.80620        0.01840       -0.16050
C          1.55140        0.40560       -1.43640
Cl         2.06680        1.11280        1.19660
H          1.81770       -1.02700        0.11420
C          1.24890       -0.59760       -2.53820
C          2.17410        3.95060       -3.57200
C          2.94580        3.39240       -2.62880
C          2.34810        2.74370       -1.41590
O          1.51890        1.71380       -1.82080
C          2.77460        4.58540       -4.78840
H          1.09240        3.94190       -3.46480
H          4.02730        3.40020       -2.73940
H          1.75850        3.49390       -0.84780
H          3.18710        2.37450       -0.79150
Br         1.26620       -2.48220       -2.03630
Br        -0.50520       -0.21490       -3.26750
Br         2.55350       -0.37110       -3.95370
F          3.59880        5.63250       -4.41830
H          1.96730        4.97440       -5.44320
H          3.36360        3.83280       -5.35430
