20
TSA8_9_CCl3_Cl_CBr3
C          1.53480       -0.52700       -0.22790
C          2.19050       -1.28120        0.68570
C          2.19040        0.21410       -1.37280
H          0.46190       -0.41990       -0.13740
Cl         3.94260       -1.47150        0.65730
C          0.32030       -5.05620        1.38780
C          0.52200       -3.85180        0.82520
C          0.32090       -2.57590        1.59650
O          1.53320       -1.91550        1.69620
C          0.57380       -6.34030        0.64380
H         -0.02320       -5.11190        2.41720
H          0.87220       -3.78410       -0.20050
H         -0.03000       -2.80270        2.62660
H         -0.45940       -1.94740        1.12210
Cl         2.95390       -0.93150       -2.50550
Cl         0.95510        1.13180       -2.27380
Cl         3.40230        1.38630       -0.78620
Br         0.16970       -7.85440        1.78510
Br        -0.53630       -6.45700       -0.94170
Br         2.44150       -6.45720        0.12920
