20
TSA8_9_CCl3_Cl_CBr3
C          1.45730       -2.08250        0.04490
C          1.84190       -1.23730        1.32810
C          2.36760       -1.70970       -1.17910
H          0.44730       -1.74390       -0.27370
Cl         3.55910       -1.37130        1.80660
C          1.31310       -3.57420        0.52860
C          0.22740       -3.59760        1.65030
C         -0.07970       -2.22400        2.26050
O          1.09550       -1.50110        2.51270
C          1.00900       -4.73350       -0.48230
H          2.27840       -3.83720        1.01230
H         -0.75280       -3.98980        1.30290
H         -0.63030       -2.37630        3.21190
H         -0.75420       -1.62470        1.60820
Cl         4.04140       -2.33260       -1.09010
Cl         1.65490       -2.23100       -2.72920
Cl         2.47080        0.06980       -1.33240
Br         0.75270       -6.41240        0.47790
Br        -0.61060       -4.41750       -1.51460
Br         2.47070       -5.16050       -1.68570
