23
TSA8_9_Me_CH2F_CBr3
C          2.64740       -1.86180       -0.28080
C          1.44260       -2.29060        0.53400
C          2.30250       -0.57620       -1.05010
H          3.46030       -1.58360        0.42330
C          1.51650       -2.30380        2.03500
C          3.21140       -2.95820       -1.25050
C          2.18910       -3.35720       -2.30220
C          2.37380       -3.10730       -3.60230
O          0.39730       -2.59720       -0.02150
C          3.78740       -4.22590       -0.54790
H          4.08160       -2.48330       -1.75920
H          1.27810       -3.86410       -2.00180
H          1.62110       -3.40910       -4.32350
H          3.26710       -2.60390       -3.95800
H          1.48400       -0.75040       -1.78030
H          3.19540       -0.20510       -1.59730
H          1.97950        0.21680       -0.34160
F          0.31160       -2.70950        2.58270
H          1.75250       -1.28320        2.40160
H          2.31440       -2.99970        2.36550
Br         4.65750       -5.36670       -1.86140
Br         5.15910       -3.76240        0.74930
Br         2.45440       -5.32720        0.34690
