23
TSA8_9_Me_CH2F_CBr3
C          1.64050       -0.05920        0.00380
C          1.42240       -1.34830        0.36860
C          1.84930        0.45450       -1.39460
H          1.63780        0.70660        0.77480
C          1.14200       -1.67020        1.81070
C          3.93030       -4.51880       -1.99690
C          2.97870       -4.01500       -1.19630
C          2.37110       -2.67090       -1.46470
O          1.42640       -2.40440       -0.49130
C          4.56020       -5.86070       -1.72960
H          4.25830       -3.94090       -2.85700
H          2.64440       -4.58240       -0.33110
H          1.88000       -2.68030       -2.46140
H          3.19050       -1.91910       -1.45220
H          1.74850       -0.31430       -2.17930
H          2.85040        0.92760       -1.46750
H          1.07710        1.22330       -1.60490
F         -0.09940       -2.26910        1.91580
H          1.15670       -0.76780        2.45840
H          1.91540       -2.37570        2.18070
Br         5.88950       -6.24940       -3.08470
Br         5.44000       -5.86400        0.00050
Br         3.22250       -7.26530       -1.76790
