21
TSA8_9_H_CBr3_OMe
C          3.17290        2.23050       -0.18330
C          1.75360        1.75860       -0.41510
H          3.83650        1.34020       -0.14750
H          3.48930        2.86260       -1.04060
C          0.98870        2.17880       -1.65140
C          3.31540        3.07740        1.10920
C          2.98730        2.28760        2.36190
C          1.96490        2.61450        3.15890
O          1.23040        1.01540        0.40200
O          4.58300        3.71520        1.23520
H          2.58120        3.90710        1.00450
H          3.59170        1.42650        2.62750
H          1.32710        3.46480        2.93850
H          1.76000        2.02380        4.04590
Br         1.91730        1.57340       -3.24250
Br        -0.80590        1.43030       -1.69080
Br         0.82480        4.11020       -1.71270
C          5.67950        2.83830        1.06270
H          6.58520        3.33460        1.46780
H          5.86360        2.65000       -0.01620
H          5.56880        1.88870        1.62520
