21
TSA8_9_H_CBr3_OMe
C          2.15970        0.42110       -0.21340
C          1.53260        1.60370       -0.39630
H          2.52210        0.11020        0.75860
H          2.33090       -0.27970       -1.01930
C          1.01550        2.04910       -1.75290
C          3.91490        4.00520        2.22590
C          3.41100        2.88510        1.67410
C          1.96900        2.49090        1.86560
O          1.32890        2.47150        0.63960
O          5.20110        4.41710        2.05140
H          3.27270        4.62910        2.83930
H          4.03380        2.24440        1.05930
H          1.45060        3.23260        2.51020
H          1.88710        1.50820        2.37570
Br         1.26400        0.79430       -3.22470
Br        -0.87990        2.42750       -1.62790
Br         1.92520        3.68970       -2.23780
C          6.14490        3.80550        1.25220
H          7.09080        4.38230        1.30430
H          5.79810        3.79060        0.19660
H          6.33830        2.77090        1.60580
