21
TSA8_9_H_CBr3_OMe
C          3.22600        1.75500        0.32710
C          1.69040        1.79950        0.02260
H          3.43540        0.85960        0.95170
H          3.81890        1.65130       -0.60290
C          1.33130        2.21120       -1.42060
C          3.62980        2.99530        1.14440
C          2.80220        3.03830        2.44280
C          1.42320        2.38480        2.25630
O          0.95900        2.60910        0.94480
O          5.00560        3.00330        1.48620
H          3.35150        3.91150        0.57940
H          3.29810        2.51860        3.29220
H          0.70990        2.79910        2.99800
H          1.47560        1.28800        2.45690
Br         2.11490        0.99300       -2.71390
Br        -0.59160        2.10890       -1.65410
Br         1.88910        4.02200       -1.84310
C          5.81080        3.30440        0.36500
H          6.78380        3.69120        0.73060
H          5.38640        4.10470       -0.28170
H          6.01440        2.38420       -0.22280
