20
TSA8_9_Cl_NH2_OMe
C          1.88420       -0.29940        0.06990
C          1.38160       -1.55580        0.08050
Cl         2.52000        0.57470       -1.31810
H          1.87870        0.27000        0.99380
N          0.86490       -2.06220        1.30190
C          4.52370       -3.22720       -2.46120
C          3.52020       -2.98790       -1.60030
C          2.18150       -2.49670       -2.07720
O          1.31590       -2.38520       -1.00470
O          5.74200       -3.70260       -2.07690
H          4.36300       -3.04620       -3.52040
H          3.65650       -3.16010       -0.53720
H          1.76710       -3.25400       -2.77530
H          2.26400       -1.55720       -2.64860
H          0.49160       -3.02070        1.34280
H          0.88640       -1.50230        2.16730
C          6.10360       -4.04970       -0.79140
H          7.15150       -4.41380       -0.79350
H          5.44940       -4.86700       -0.41620
H          6.03580       -3.16910       -0.11700
