17
TSA8_9_I_CH2F_I
C          1.82100        0.16690        0.04960
C          1.48590        1.25430        0.76930
I          2.00490       -1.78330        0.85890
H          1.98520        0.24960       -1.02040
C          1.32030        2.58910        0.09520
C          2.63770        3.47510        3.36860
C          3.13920        2.26930        3.08580
C          2.26410        1.04730        3.05430
O          1.26250        1.17760        2.10760
I          3.88740        5.17470        3.40330
H          1.58040        3.60060        3.58210
H          4.19930        2.16360        2.87700
H          1.79770        0.91630        4.05370
H          2.88620        0.15410        2.84670
F          0.03350        3.05120        0.29610
H          1.51150        2.53060       -0.99780
H          2.03630        3.31500        0.53140
