17
TSA8_9_I_CH2F_I
C          2.81100        1.68490        0.88690
C          1.27340        1.43560        1.03240
I          3.86470       -0.19440        0.77250
H          3.03670        2.17770       -0.08380
C          0.48170        2.42880        0.18060
C          3.27610        2.56250        2.05420
C          2.96340        1.88470        3.39670
C          1.71130        0.99610        3.29490
O          0.79020        1.53870        2.37590
I          5.33410        3.15340        1.93820
H          2.68260        3.50120        2.00750
H          3.79400        1.24680        3.76850
H          1.24600        0.90520        4.29780
H          1.97050       -0.04200        2.99130
F         -0.86910        2.14750        0.27180
H          0.78620        2.34520       -0.88390
H          0.65980        3.46820        0.52900
