26
TSA8_9_OMe_OMe_OMe
C          1.45750       -0.10860       -0.01160
C          1.66490        1.20950        0.12860
O          1.13070       -0.87350        1.05560
H          1.57550       -0.56550       -0.99200
O          2.03230        1.93200       -0.95730
C          1.25570        1.25050        4.23830
C          0.35160        1.06110        3.26070
C          0.33270        1.90400        2.02080
O          1.53270        1.81470        1.33960
O          1.28840        0.50460        5.37700
H          1.99950        2.03290        4.12440
H         -0.40250        0.28560        3.34540
H          0.15490        2.96690        2.28960
H         -0.51310        1.57180        1.37960
C          0.96020       -2.23590        0.96280
H          0.71300       -2.64050        1.96580
H          1.89760       -2.71470        0.60610
H          0.13040       -2.47180        0.26300
C          2.25600        3.29040       -0.92100
H          3.09710        3.52080       -0.23320
H          1.33890        3.82030       -0.58300
H          2.51610        3.64460       -1.93940
C          0.40850       -0.50900        5.70450
H          0.68680       -0.92950        6.69230
H          0.45640       -1.32090        4.94740
H         -0.62690       -0.11070        5.76930
