14
TSA8_9_F_H_H
C          1.37950       -1.36710        1.59850
C          1.11470        0.08970        1.33970
F          0.83400       -2.12060        0.57300
H          2.48230       -1.50570        1.57890
H          1.95060        0.77360        1.23400
C          0.89460       -1.90310        2.96250
C         -0.60000       -1.91020        3.17130
C         -1.30960       -0.80260        3.40460
O         -0.01860        0.50820        1.17490
H          1.22940       -2.96240        3.00710
H          1.38820       -1.36460        3.80050
H         -1.11720       -2.86540        3.17650
H         -0.83740        0.17170        3.45800
H         -2.38000       -0.87050        3.56920
