14
TSA8_9_F_H_H
C          2.02910       -0.02800        0.16800
C          1.25960        0.07710        1.25150
F          2.27620       -1.24230       -0.39040
H          2.46340        0.86120       -0.27770
H          1.07430        1.05970        1.67940
C         -0.29040       -2.89860        4.46300
C         -0.55340       -2.35230        3.27230
C         -0.10270       -0.96610        2.91520
O          0.71550       -1.02840        1.80930
H         -0.63330       -3.90420        4.68500
H          0.26390       -2.35550        5.22220
H         -1.11150       -2.92600        2.53800
H          0.44750       -0.49380        3.75980
H         -0.99900       -0.35020        2.68450
