14
TSA8_9_F_H_H
C          1.53720       -1.57660        1.66670
C          1.03420       -0.13770        1.50140
F          1.04440       -2.35310        0.63110
H          2.64690       -1.60150        1.62860
H          1.48990        0.55950        2.24090
C          1.04290       -2.12020        3.00940
C         -0.47540       -1.96140        3.09320
C         -0.83620       -0.49320        2.82780
O         -0.38190       -0.08320        1.54810
H          1.33060       -3.18600        3.13150
H          1.50840       -1.53760        3.83480
H         -0.96630       -2.60350        2.32930
H         -0.42980        0.16970        3.62500
H         -1.94090       -0.39220        2.86090
