20
TSA8_9_CBr3_F_CHF2
C          1.78220       -0.04210       -0.01500
C          1.06530       -0.98330        0.62490
C          2.17620       -0.00290       -1.47970
H          2.11690        0.80270        0.58180
F          0.81270       -0.80760        1.95190
C         -0.24760       -5.39070       -0.05900
C         -0.53770       -4.11310       -0.35070
C         -0.23730       -2.99750        0.60750
O          0.59290       -2.08450       -0.00370
C         -0.55220       -6.50090       -1.01960
H          0.21500       -5.64240        0.89110
H         -1.00630       -3.86780       -1.30050
H          0.24650       -3.38700        1.53100
H         -1.19140       -2.50050        0.88650
Br         1.45980        1.62420       -2.24480
Br         4.10660        0.07990       -1.58600
Br         1.59390       -1.47630       -2.61200
F         -1.90950       -6.54220       -1.28190
F          0.14070       -6.30710       -2.20060
H         -0.24220       -7.47000       -0.57540
