22
TSA8_9_OMe_H_OMe
C          0.53730       -0.20570        1.49410
C          1.18110        0.79380        0.56430
O          1.49110       -1.17350        1.90230
H         -0.33040       -0.68600        0.98190
H          0.79000        0.92400       -0.44040
C         -0.02680        0.48510        2.75370
C         -1.03190        1.56420        2.33890
C         -0.84660        2.85480        2.63350
O          2.14180        1.45410        0.92580
O         -0.51390       -0.53260        3.63410
H          0.81870        0.97850        3.28480
H         -1.92010        1.27910        1.78260
H          0.02800        3.18760        3.18300
H         -1.57880        3.59210        2.31980
C          1.70440       -2.12610        0.88130
H          2.35350       -2.92930        1.28560
H          2.23830       -1.67210        0.01860
H          0.75760       -2.61630        0.56300
C         -1.85770       -0.39060        4.04320
H         -2.54890       -0.53540        3.18560
H         -2.08240       -1.19180        4.77650
H         -2.02270        0.57600        4.56720
