22
TSA8_9_OMe_H_OMe
C          0.36360       -0.29950        1.48440
C          0.86080        0.92930        0.68190
O          1.44390       -1.11400        1.90290
H         -0.33990       -0.85080        0.81280
H          0.12040        1.23620       -0.09310
C         -0.42570        0.14710        2.73830
C         -1.17110        1.43860        2.38790
C         -0.09200        2.51950        2.11820
O          1.11690        2.02840        1.53070
O         -1.28730       -0.90070        3.14300
H          0.31180        0.38570        3.54300
H         -1.79540        1.25110        1.48670
H          0.19300        2.92080        3.11370
H         -0.51480        3.35910        1.52820
C          1.85880       -1.95860        0.85080
H          2.72080       -2.56000        1.20480
H          2.20910       -1.37170       -0.02680
H          1.05610       -2.67510        0.56800
C         -1.91380       -0.58890        4.37080
H         -2.79270        0.06910        4.19880
H         -2.27900       -1.53240        4.82600
H         -1.21810       -0.13700        5.11300
