20
TSA8_9_OH_CCl3_NO2
C          2.69340       -1.50850        0.19650
C          1.34300       -1.22740        0.94540
O          2.57140       -1.10220       -1.14200
H          3.54480       -0.96360        0.66530
C          1.50530       -0.49830        2.29210
C          2.98890       -3.02460        0.24640
C          1.81370       -3.80810       -0.37160
C          0.47530       -3.10400       -0.09870
O          0.54370       -2.39790        1.12020
N          4.24120       -3.40470       -0.38820
H          3.04940       -3.30250        1.32100
H          1.90400       -3.94300       -1.47190
H         -0.34150       -3.85420       -0.06950
H          0.21900       -2.40430       -0.92950
H          2.58160       -0.10940       -1.13730
Cl         2.43390       -1.47470        3.46170
Cl         2.31910        1.07320        2.06410
Cl        -0.10310       -0.16710        2.98580
O          4.93950       -2.59260       -0.91770
O          4.62860       -4.66180       -0.35600
