15
TSA8_9_Cl_OH_F
C          1.45040       -1.66520       -0.08970
C          2.67160       -0.94100        0.44760
Cl         0.95090       -1.00470       -1.68080
H          0.59740       -1.45560        0.59070
O          3.12950       -1.17930        1.69560
C          1.65060       -3.20060       -0.15050
C          2.87690       -3.64400       -0.91970
C          3.03620       -3.46610       -2.23480
O          3.24980       -0.11480       -0.24100
F          1.76030       -3.68900        1.13980
H          0.74780       -3.67220       -0.59530
H          3.66610       -4.15540       -0.37560
H          2.28200       -2.98930       -2.84630
H          3.94060       -3.81990       -2.71910
H          2.68970       -1.79000        2.30140
