15
TSA8_9_Cl_OH_F
C          1.57510       -0.05770        0.08230
C          2.18580       -1.24180       -0.07520
Cl         0.79640        0.75740       -1.26900
H          1.57040        0.43240        1.05080
O          2.80510       -1.83270        0.97310
C          1.65040       -4.73020       -0.64780
C          2.81960       -4.10440       -0.79220
C          2.98280       -2.89750       -1.67770
O          2.17760       -1.83790       -1.29650
F          1.56150       -5.81780        0.16140
H          0.76300       -4.38350       -1.16970
H          3.68930       -4.47550       -0.25820
H          2.73040       -3.17520       -2.72230
H          4.04440       -2.56940       -1.65480
H          2.81250       -1.44770        1.86060
