17
TSA8_9_Cl_CF3_Br
C          1.98710       -0.27950       -0.03680
C          1.52100       -1.52650       -0.31510
Cl         2.58580        0.91440       -1.18370
H          1.99410        0.07390        0.98850
C          1.00730       -2.40620        0.80250
C          4.22350       -2.75840       -3.42670
C          3.55740       -1.89970       -2.64740
C          2.06270       -1.72680       -2.74890
O          1.45590       -2.08750       -1.56150
Br         6.11740       -2.95110       -3.25250
H          3.70640       -3.36170       -4.16660
H          4.11060       -1.31850       -1.91780
H          1.66160       -2.39060       -3.54430
H          1.78520       -0.69690       -3.04390
F         -0.31270       -2.73180        0.55330
F          1.75410       -3.56910        0.83770
F          1.08260       -1.79860        2.04560
