17
TSA8_9_Cl_CF3_Br
C          3.01890       -1.21440       -0.80540
C          1.48710       -1.53730       -0.79570
Cl         3.25780        0.53000       -1.13360
H          3.47220       -1.40040        0.19210
C          1.09500       -2.44290        0.37640
C          3.70360       -2.08140       -1.87010
C          3.07430       -1.84290       -3.25240
C          1.58170       -1.49370       -3.12610
O          1.02120       -2.14080       -2.00570
Br         5.63030       -1.83800       -1.92840
H          3.51740       -3.14160       -1.59520
H          3.56100       -1.02080       -3.82130
H          1.05240       -1.79590       -4.05300
H          1.43160       -0.39280       -3.03760
F         -0.27210       -2.65080        0.35780
F          1.73770       -3.66450        0.28180
F          1.43120       -1.84030        1.57520
