23
TSA8_9_F_CBr3_Et
C          3.06190        1.25720        0.55230
C          2.14960        2.14710       -0.27740
F          2.27040        0.31610        1.18670
H          3.73530        0.68590       -0.11610
C          2.19580        2.16000       -1.79430
C          3.91520        2.02010        1.61670
C          3.05430        2.83240        2.57110
C          2.15200        2.27740        3.38800
O          1.30530        2.81810        0.29820
C          4.98160        2.94710        0.98540
H          4.46610        1.27280        2.23080
H          3.17800        3.91170        2.61450
H          1.56940        2.90560        4.05410
H          1.98810        1.20660        3.41300
Br         1.90160        0.36990       -2.47850
Br         0.81390        3.30450       -2.54750
Br         3.89030        2.81070       -2.46380
C          6.08500        2.18460        0.24520
H          5.49070        3.50780        1.80120
H          4.50170        3.68970        0.31330
H          6.59630        1.48420        0.93920
H          6.83500        2.90650       -0.14110
H          5.69420        1.60790       -0.61310
