18
TSA8_9_OH_OH_NO2
C          2.02020       -0.10370        0.08850
C          1.33330       -1.25370        0.10840
O          1.92800        0.72990       -0.96790
H          2.65660        0.16730        0.92680
O          1.42410       -2.08830        1.17220
C         -0.85650       -3.73760       -3.17760
C         -0.99100       -2.73660       -2.29000
C         -0.22970       -2.71650       -0.99670
O          0.54240       -1.57600       -0.94590
N         -1.57610       -3.76410       -4.40620
H         -0.17900       -4.55890       -2.95830
H         -1.66560       -1.91000       -2.49390
H          0.42180       -3.61350       -0.89880
H         -0.95950       -2.71130       -0.15830
H          2.41990        1.56240       -0.98230
H          1.97770       -1.89330        1.94230
O         -2.33270       -2.88680       -4.69780
O         -1.40700       -4.77260       -5.23250
