18
TSA8_9_OH_OH_NO2
C          1.00800       -1.24750       -1.68870
C          1.01850       -1.47750       -0.16660
O          0.37850       -0.02150       -1.96040
H          2.04850       -1.23170       -2.08920
O          1.80720       -2.57450        0.20070
C          0.23570       -2.40260       -2.35770
C         -1.14960       -2.52850       -1.71250
C         -0.97970       -2.68850       -0.19600
O         -0.29340       -1.58100        0.36880
N          0.12540       -2.21700       -3.79380
H          0.78920       -3.34980       -2.16170
H         -1.75850       -1.62030       -1.91670
H         -0.46440       -3.64420        0.04890
H         -1.98840       -2.74920        0.26250
H          1.05510        0.68810       -1.80280
H          2.46100       -2.20610        0.84730
O         -0.45450       -1.27600       -4.24620
O          0.65350       -3.10310       -4.61060
