19
TSA8_9_NH2_CBr3_Br
C          2.21310       -0.62640        0.86550
C          1.22680        0.52770        0.84200
N          2.13160       -1.33090       -0.41680
H          3.24200       -0.21660        0.96940
C          1.69950        1.96800        0.86090
C          1.93390       -1.59390        2.04640
C          1.98230       -0.88290        3.37300
C          0.92290       -0.83150        4.18660
O          0.03090        0.28170        0.77360
Br         3.25000       -3.02420        2.10920
H          0.93450       -2.06070        1.89880
H          2.90600       -0.40050        3.67930
H          0.99270       -0.31220        5.13660
H         -0.01700       -1.30430        3.91710
H          1.20200       -1.79990       -0.52170
H          2.88680       -2.04830       -0.49410
Br         2.80460        2.31060       -0.69500
Br         0.21340        3.22170        0.81500
Br         2.73680        2.35290        2.45220
