16
TSA8_9_NH2_I_F
C          1.73770       -0.06420        0.18920
C          1.39470       -0.72080        1.32580
N          2.27090       -0.62950       -0.99980
H          1.57720        1.00980        0.17690
I          0.58400        0.45850        2.88160
C          4.44820       -3.74720        1.59210
C          3.62360       -2.89230        0.97840
C          2.12820       -3.09600        0.96700
O          1.49270       -2.05420        1.61090
F          5.78800       -3.52280        1.58320
H          4.06630       -4.62480        2.10450
H          4.05160       -2.02750        0.48330
H          1.87640       -4.02770        1.51690
H          1.72220       -3.24070       -0.05180
H          2.48250       -0.00260       -1.78900
H          2.44490       -1.62470       -1.14500
