20
TSA8_9_H_Et_F
C          1.93940        1.38290       -1.40380
C          0.84160        0.70880       -2.18290
H          1.60320        1.48220       -0.34960
H          2.85760        0.75530       -1.41890
C          1.10540       -0.61120       -2.86840
C          2.26820        2.76380       -1.99290
C          3.34910        3.45850       -1.20590
C          3.18440        3.80240        0.07580
O         -0.26040        1.23640       -2.24420
F          2.69630        2.60910       -3.30120
H          1.36060        3.40610       -1.99210
H          4.28770        3.70040       -1.69620
H          2.25790        3.58980        0.60000
H          3.98280        4.30780        0.60900
C         -0.11920       -1.16070       -3.60040
H          1.42640       -1.35290       -2.10600
H          1.92880       -0.47470       -3.60160
H         -0.95140       -1.33120       -2.88420
H          0.13780       -2.12750       -4.08190
H         -0.45070       -0.44910       -4.38660
