20
TSA8_9_H_Et_F
C          2.02750       -0.03820       -0.26100
C          1.63780        0.41510       -1.46890
H          2.26970        0.61850        0.56400
H          2.09870       -1.10360       -0.06500
C          1.29080       -0.56960       -2.55950
C          2.22450        4.25260       -3.09390
C          2.80520        3.70100       -2.02380
C          2.03060        2.83240       -1.07720
O          1.52510        1.74200       -1.76710
F          2.94850        5.03760       -3.93340
H          1.17260        4.08240       -3.30390
H          3.85790        3.88860       -1.83250
H          1.18870        3.41920       -0.65340
H          2.70880        2.53790       -0.25350
C         -0.15420       -0.39560       -3.01550
H          1.42850       -1.61980       -2.21930
H          1.96870       -0.39630       -3.42210
H         -0.84950       -0.58810       -2.17210
H         -0.37580       -1.11760       -3.82940
H         -0.32050        0.63320       -3.40090
