18
TSA8_9_H_OMe_Cl
C          1.68310       -0.02540        0.22850
C          1.75110        1.31060        0.19930
H          1.55720       -0.57550        1.15170
H          1.73700       -0.59240       -0.69600
O          1.86970        1.92520       -1.00240
C          3.86470        0.07490        3.11210
C          2.70080        0.73110        3.05790
C          2.58540        2.06370        2.37260
O          1.66870        2.06040        1.33660
Cl         3.97190       -1.48320        3.91590
H          4.76010        0.48940        2.66070
H          1.81560        0.29920        3.51570
H          3.56970        2.40440        1.97690
H          2.25320        2.80670        3.12730
C          2.11850        3.27320       -1.14110
H          2.13250        3.53250       -2.21800
H          3.10990        3.51820       -0.70130
H          1.32740        3.86920       -0.63540
