26
TSA8_9_CHF2_Et_Me
C          2.53200        0.07060        1.23270
C          1.36160        1.04220        1.21820
C          2.02480       -1.34770        0.87680
H          3.22790        0.36280        0.41550
C          1.32410        2.20580        0.26210
C          3.33420        0.20540        2.56910
C          2.50060       -0.07980        3.80140
C          2.25460        0.86460        4.71690
O          0.42070        0.87580        1.98140
C          4.59400       -0.66960        2.60560
H          3.68790        1.26090        2.60720
H          2.09280       -1.07270        3.95750
H          2.64320        1.87180        4.60440
H          1.65610        0.63090        5.58990
F          3.07270       -2.23170        0.70210
F          1.15990       -1.84360        1.83480
H          1.47820       -1.30030       -0.08970
C          2.44820        3.19760        0.55000
H          0.35620        2.74350        0.36840
H          1.40230        1.83110       -0.78070
H          2.35780        3.58400        1.58830
H          2.37750        4.05300       -0.15410
H          3.44280        2.72200        0.42520
H          4.34120       -1.74900        2.63540
H          5.18280       -0.44180        3.51960
H          5.23350       -0.46370        1.72120
