21
TSA8_9_OMe_CHF2_I
C          0.84900       -0.47290       -1.38680
C          1.63600       -1.33650       -0.42330
O          1.72400        0.45240       -2.01130
H          0.01890        0.04560       -0.84670
C          1.27410       -1.37340        1.03500
C          0.18690       -1.33490       -2.47920
C         -0.78960       -2.31740       -1.88220
C         -0.64690       -3.63750       -2.03020
O          2.57570       -2.00180       -0.83470
I         -0.89140       -0.09370       -3.85480
H          0.97770       -1.86320       -3.05720
H         -1.63400       -1.93950       -1.31290
H          0.18400       -4.05450       -2.59050
H         -1.37010       -4.31310       -1.58490
C          1.86280        1.61420       -1.22180
H          2.56720        2.30140       -1.73340
H          2.30080        1.37830       -0.22730
H          0.89520        2.15430       -1.12510
F         -0.02180       -1.83100        1.18390
F          2.12990       -2.21000        1.73010
H          1.34980       -0.35110        1.46030
