19
TSA8_9_NH2_H_CBr3
C          2.02730       -0.01490        0.04910
C          2.53370        0.86400        0.92410
N          1.10050       -1.01480        0.43940
H          2.35340        0.02360       -0.98570
H          3.26550        1.58220        0.56920
C          2.57130        3.88240        3.88570
C          3.01330        2.96550        3.00950
C          2.84100        1.48430        3.24300
O          2.14890        0.85370        2.22540
C          2.80310        5.35680        3.67220
H          2.05030        3.55870        4.78250
H          3.54540        3.29260        2.12160
H          2.30330        1.29490        4.19680
H          3.84900        1.02600        3.32690
H          0.75650       -1.69050       -0.25940
H          0.78410       -1.10800        1.41540
Br         2.05670        6.36740        5.14790
Br         4.70600        5.73350        3.59010
Br         1.96300        5.95920        2.03140
