18
TSA8_9_CN_CH2F_Br
C          2.76250       -0.53050        1.17160
C          1.83020        0.44140        1.90990
C          2.06010       -1.04630       -0.04560
H          3.64000        0.05820        0.82440
C          1.67750        1.88190        1.49650
C          3.21880       -1.71400        2.12120
C          2.26780       -2.84670        1.91180
C          1.06860       -2.82030        2.47360
O          1.43100        0.15920        3.03000
Br         5.01640       -2.41970        1.88860
H          3.25730       -1.39240        3.18830
H          2.45740       -3.52630        1.08230
H          0.83520       -2.08900        3.23280
H          0.30640       -3.49420        2.11960
N          1.51600       -1.44350       -0.98880
F          1.45560        2.66210        2.62330
H          0.81210        2.00750        0.81690
H          2.60370        2.25510        1.01570
