21
TSA8_9_Et_H_CN
C          1.54010        0.10100       -0.01750
C          1.22070        1.43780       -0.06500
C          1.69580       -0.89390        1.12430
H          1.55390       -0.39430       -0.98610
H          1.15740        1.86650       -1.04600
C          1.99050        2.76510        4.05830
C          1.83490        1.94080        3.02080
C          0.56350        1.92820        2.22340
O          0.88600        2.29200        0.94370
C          3.27290        2.92150        4.68870
H          1.17260        3.38570        4.40390
H          2.67170        1.33180        2.69350
H         -0.17450        2.64450        2.63660
H          0.00400        0.97790        2.19500
C          3.17470       -1.16280        1.13950
H          1.15370       -1.86600        0.94410
H          1.38040       -0.57010        2.12960
H          3.48820       -1.56580        0.14880
H          3.41960       -1.86680        1.94000
H          3.71700       -0.21550        1.34150
N          4.29340        3.06570        5.21190
