23
TSA8_9_CHF2_CHF2_Me
C          2.04510        1.66430       -1.17330
C          0.80860        1.40910       -2.01700
C          1.78950        1.12020        0.25070
H          2.89290        1.08300       -1.60130
C          0.87220        0.48450       -3.20070
C          2.42010        3.17940       -1.18750
C          3.65520        3.44800       -0.35680
C          3.63150        4.26540        0.70140
O         -0.24910        1.95130       -1.72890
C          2.69550        3.68000       -2.61420
H          1.56140        3.76200       -0.78290
H          4.58970        2.96420       -0.62690
H          2.71830        4.76770        1.00420
H          4.53620        4.43540        1.27560
F          2.93370        1.18050        1.02490
F          0.77860        1.82750        0.87950
H          1.49100        0.05140        0.18770
F         -0.36600        0.38710       -3.81170
F          1.79110        0.95690       -4.11910
H          1.18350       -0.52540       -2.86110
H          3.54160        3.12070       -3.06940
H          2.95200        4.76130       -2.59580
H          1.79980        3.56050       -3.25820
