21
TSA8_9_CF3_OH_CCl3
C          1.82180       -0.05670        0.09590
C          1.65520       -1.08370        0.95510
C          1.81340       -0.16620       -1.41030
H          1.98900        0.93640        0.50400
O          1.68990       -0.86370        2.29010
C          2.93920       -4.82740        2.39030
C          2.99550       -3.60410        1.83980
C          2.43100       -3.31690        0.47230
O          1.44700       -2.34620        0.50680
C          3.52960       -5.11280        3.74710
H          2.46380       -5.63760        1.84350
H          3.47740       -2.79460        2.38030
H          1.99410       -4.23530        0.02490
H          3.25690       -2.97830       -0.18910
F          3.04020        0.24850       -1.89260
F          1.57530       -1.45290       -1.85840
F          0.83200        0.66390       -1.91650
H          1.82730        0.01540        2.67250
Cl         3.29210       -6.82870        4.16390
Cl         5.28100       -4.77380        3.74470
Cl         2.73920       -4.11360        4.99450
