23
TSA8_9_CCl3_CF3_CH2F
C          1.34050       -1.99670        0.91850
C          1.36000       -0.55400        1.60050
C          2.42950       -2.23430       -0.18300
H          0.38420       -2.05570        0.35350
C          2.71960        0.01240        2.07200
C          1.24950       -3.04470        2.07400
C         -0.02160       -2.77160        2.91680
C         -0.56900       -1.35330        2.71570
O          0.47300       -0.41110        2.71490
C          1.28130       -4.53140        1.68450
H          2.12630       -2.88200        2.73220
H         -0.86190       -3.46040        2.67840
H         -1.27680       -1.12430        3.53910
H         -1.15680       -1.26590        1.77430
Cl         2.04330       -3.64790       -1.20660
Cl         2.46040       -0.86910       -1.33720
Cl         4.06650       -2.50480        0.48400
F          2.50490        1.24570        2.66180
F          3.30780       -0.81570        3.00870
F          3.59030        0.21900        1.02400
F          0.22200       -4.84890        0.85120
H          1.21390       -5.15780        2.59980
H          2.23910       -4.79260        1.19350
