16
TSA8_9_NH2_F_Cl
C          2.87940       -0.33540        1.09940
C          1.43900       -0.10400        1.49510
N          2.97080       -0.69070       -0.31890
H          3.39400        0.64110        1.24550
F          1.06470        1.11520        1.96510
C          3.65420       -1.35700        1.97710
C          3.22060       -2.80310        1.84700
C          2.07210       -3.27740        2.33630
O          0.59070       -0.96610        1.33880
Cl         5.38530       -1.26270        1.52980
H          3.59740       -1.05620        3.04630
H          3.89230       -3.51040        1.36730
H          1.37530       -2.64450        2.86960
H          1.83390       -4.33000        2.22290
H          2.54110        0.06530       -0.89950
H          2.45460       -1.58150       -0.50300
