16
TSA8_9_NH2_F_Cl
C          2.84760       -0.39500        1.09100
C          1.35310       -0.48560        1.52560
N          3.02020       -0.92000       -0.26610
H          3.17210        0.66950        1.08270
F          0.89950        0.75990        1.92190
C          3.71570       -1.16140        2.10100
C          3.21770       -2.60370        2.27610
C          1.67940       -2.66110        2.22960
O          1.12690       -1.41100        2.58470
Cl         5.45180       -1.12160        1.68850
H          3.59160       -0.65370        3.08340
H          3.61410       -3.30850        1.51330
H          1.32300       -3.45130        2.92210
H          1.31700       -2.96170        1.21900
H          2.47210       -0.33030       -0.93400
H          2.67400       -1.90240       -0.34070
