20
TSA8_9_Me_F_Me
C          1.40650        1.18760        1.92000
C          1.11870        1.29990        0.44070
C          1.25150       -0.27720        2.36580
H          2.47370        1.46720        2.06610
F          2.10100        1.70260       -0.40700
C          0.54500        2.19910        2.73630
C         -0.94100        1.92630        2.62160
C         -1.78300        2.81400        2.08320
O          0.01780        1.02180       -0.00900
C          0.93570        2.22390        4.22030
H          0.77110        3.21280        2.33270
H         -1.34090        0.98680        2.99100
H         -1.42900        3.76760        1.70340
H         -2.84190        2.58680        2.01940
H          0.20870       -0.63310        2.23370
H          1.54660       -0.40500        3.42660
H          1.91910       -0.92590        1.75880
H          0.71460        1.25700        4.71790
H          0.36280        3.01700        4.74760
H          2.01790        2.44910        4.32920
