20
TSA8_9_Me_F_Me
C          1.84260        0.06600        0.06860
C          1.12850        1.16570        0.34750
C          2.09070       -1.03450        1.06130
H          2.26420       -0.04520       -0.92580
F          0.95560        2.10190       -0.62630
C         -0.35100        3.29400        4.21360
C         -0.64010        2.33750        3.31910
C         -0.20610        2.43570        1.88610
O          0.58330        1.35030        1.57490
C         -0.79560        3.17840        5.63830
H          0.21220        4.17400        3.91340
H         -1.20670        1.46310        3.62850
H          0.36160        3.37580        1.70410
H         -1.11100        2.43470        1.24020
H          1.61950       -0.83490        2.04610
H          3.18400       -1.15240        1.21050
H          1.67760       -1.98380        0.66100
H         -0.35420        2.27040        6.10030
H         -1.90330        3.11540        5.68580
H         -0.46210        4.07060        6.20860
