22
TSA8_9_CF3_NO2_Me
C          2.02600       -1.67580       -1.47020
C          0.69680       -2.35760       -1.15880
C          1.86940       -0.15050       -1.25000
H          2.80320       -2.03090       -0.75940
N          0.57780       -3.26160       -0.14480
C          2.50080       -2.03120       -2.91430
C          3.85970       -1.43110       -3.20110
C          4.05750       -0.55660       -4.19200
O         -0.28200       -2.08500       -1.84210
C          2.60970       -3.55160       -3.11710
H          1.75120       -1.64760       -3.64340
H          4.70400       -1.72180       -2.58160
H          3.24220       -0.23930       -4.83420
H          5.04910       -0.15030       -4.36400
F          3.07800        0.50220       -1.40880
F          0.95500        0.38270       -2.14270
F          1.42520        0.08970        0.03900
O         -0.47490       -3.78190        0.07470
O          1.61320       -3.57650        0.60510
H          1.62530       -4.04430       -2.97520
H          3.33650       -3.99320       -2.40170
H          2.94600       -3.77370       -4.15290
