22
TSA8_9_CF3_NO2_Me
C          1.68710       -0.08110       -0.06260
C          1.41060       -1.32570       -0.53870
C          1.87420        1.19810       -0.84410
H          1.76470        0.05130        1.01220
N          1.18290       -2.39780        0.37800
C          2.76210       -3.18420       -4.51880
C          2.81940       -2.80270       -3.23630
C          2.36090       -1.45030       -2.77670
O          1.33560       -1.62270       -1.86550
C          3.22980       -4.54650       -4.92860
H          2.37440       -2.51050       -5.27800
H          3.20880       -3.48850       -2.48810
H          1.99620       -0.84000       -3.63090
H          3.23400       -0.93980       -2.31330
F          3.16810        1.65070       -0.66920
F          1.61410        1.07100       -2.19080
F          1.00260        2.14540       -0.34050
O          0.94060       -3.49070       -0.03810
O          1.23230       -2.20580        1.67960
H          2.63600       -5.32380       -4.40230
H          4.30370       -4.67010       -4.67350
H          3.10220       -4.67580       -6.02340
