22
TSA8_9_CF3_NO2_Me
C          2.09760       -1.87730       -1.42620
C          0.69390       -1.22050       -1.65990
C          3.07590       -0.83520       -0.83060
H          2.00660       -2.67440       -0.65360
N         -0.32110       -1.86870       -0.86240
C          2.54800       -2.55120       -2.74940
C          2.50330       -1.55900       -3.92480
C          1.29570       -0.61430       -3.80230
O          0.28340       -1.21520       -3.02490
C          3.88790       -3.28890       -2.68590
H          1.77290       -3.32200       -2.96350
H          3.42400       -0.94870       -4.04810
H          0.91430       -0.37430       -4.81580
H          1.58520        0.36510       -3.35820
F          4.27340       -1.43290       -0.48530
F          3.33430        0.19790       -1.71040
F          2.52690       -0.30010        0.32160
O         -0.61040       -3.01100       -1.06100
O         -0.95080       -1.18850        0.06930
H          3.87570       -4.03050       -1.85910
H          4.73060       -2.58380       -2.53800
H          4.06180       -3.83100       -3.63980
