26
TSA8_9_Et_Et_Cl
C          2.61600       -0.63410       -0.97490
C          1.22730       -1.31330       -0.91520
C          2.40860        0.90450       -0.92080
H          3.18680       -0.86760       -0.04830
C          1.25090       -2.78700       -0.47270
C          3.40070       -1.12550       -2.22630
C          2.47580       -1.63850       -3.34340
C          1.11980       -0.93440       -3.30160
O          0.41130       -1.10180       -2.07160
Cl         4.53260       -2.44160       -1.79330
H          4.03330       -0.31090       -2.62390
H          2.26500       -2.72040       -3.22210
H          0.50070       -1.36710       -4.11520
H          1.23820        0.14130       -3.53510
C          3.71260        1.68660       -0.72940
H          1.77230        1.13480       -0.03740
H          1.88560        1.29070       -1.81480
H          4.22790        1.35260        0.19600
H          3.47940        2.76750       -0.62910
H          4.40030        1.57050       -1.58920
C         -0.16130       -3.30540       -0.22120
H          1.82200       -2.86480        0.47730
H          1.74370       -3.43470       -1.22160
H         -0.66310       -2.68990        0.55600
H         -0.11410       -4.35690        0.13270
H         -0.76040       -3.27460       -1.15580
