17
TSA8_9_Br_I_CHF2
C          1.87040        0.13170        0.16370
C          1.42070        0.67970        1.31380
Br         2.49160       -1.65880       -0.14170
H          1.87180        0.75320       -0.72570
I          0.75960        2.68490        1.23350
C          4.08990       -0.93780        4.24400
C          3.42720       -0.88310        3.07910
C          1.93370       -1.07710        3.00270
O          1.33130        0.07350        2.53410
C          5.57200       -0.72150        4.30550
H          3.55600       -1.13410        5.16940
H          3.97680       -0.68040        2.16540
H          1.52710       -1.28000        4.01670
H          1.66240       -1.95250        2.38380
F          6.22160       -1.67730        3.54530
F          5.88450        0.53890        3.82990
H          5.91600       -0.80370        5.35800
