17
TSA8_9_Br_I_CHF2
C          3.21150        0.31180        1.66850
C          1.67420        0.56420        1.68790
Br         3.63800       -1.07830        0.36450
H          3.72810        1.22170        1.29560
I          1.29150        2.64750        2.01160
C          3.66080       -0.03580        3.10070
C          2.91440       -1.28980        3.59810
C          1.52080       -1.40670        2.95490
O          0.96790       -0.13170        2.71870
C          5.18170       -0.16430        3.28680
H          3.33120        0.81370        3.74030
H          3.45110       -2.24110        3.39130
H          0.85960       -1.99290        3.62560
H          1.55820       -1.97650        2.00040
F          5.69730       -1.21650        2.55180
F          5.80840        1.00770        2.90250
H          5.40640       -0.34510        4.35970
