17
TSA8_9_CF3_H_Br
C          1.74720        0.92530        1.28860
C          1.09470        1.07750       -0.06610
C          1.53550       -0.51540        1.81760
H          2.84090        1.05910        1.13460
H          1.70980        1.28140       -0.93660
C          1.29130        2.06860        2.24310
C         -0.17770        2.02840        2.59310
C         -1.01270        3.01500        2.25150
O         -0.11440        0.97030       -0.20270
Br         2.31750        2.09850        3.89410
H          1.52910        3.02990        1.73410
H         -0.57330        1.18410        3.14700
H         -0.66380        3.88350        1.70130
H         -2.06140        2.95590        2.52370
F          2.19420       -0.70540        3.01720
F          0.19360       -0.80130        1.99330
F          2.05240       -1.41710        0.90300
