17
TSA8_9_CF3_H_Br
C          1.81560        0.02180        0.02280
C          1.15730        1.15520        0.31160
C          2.04120       -1.12300        0.97970
H          2.21690       -0.08890       -0.98050
H          1.05350        1.90670       -0.46800
C         -0.20170        3.42040        4.12840
C         -0.54580        2.46860        3.25430
C         -0.10690        2.51340        1.82010
O          0.62230        1.38090        1.53460
Br        -0.78480        3.32150        5.94620
H          0.41140        4.26360        3.82540
H         -1.16140        1.63680        3.58390
H          0.51200        3.41690        1.61980
H         -1.00930        2.54890        1.17220
F          3.40030       -1.32600        1.12350
F          1.49290       -0.89450        2.22910
F          1.47150       -2.26530        0.45030
