16
TSA8_9_I_Cl_NO2
C          2.64890        1.11200        1.54780
C          1.18730        0.57120        1.58110
I          3.93490       -0.32170        0.56950
H          2.70310        2.01120        0.89650
Cl         0.04990        1.91880        1.30510
C          3.05970        1.45820        2.98920
C          2.97960        0.20590        3.88160
C          1.87880       -0.75400        3.39390
O          0.80700       -0.04140        2.81680
N          4.36130        2.09540        3.07700
H          2.29230        2.17410        3.36270
H          3.92690       -0.37460        3.92310
H          1.51940       -1.35900        4.25160
H          2.27300       -1.48730        2.65710
O          5.35220        1.51370        2.75290
O          4.45720        3.32340        3.53990
