22
TSA8_9_Br_Et_NH2
C          2.16350       -0.41440       -2.03890
C          0.91180       -1.25760       -2.03750
Br         1.98220        0.95890       -0.66950
H          3.04080       -1.04430       -1.77000
C          0.99860       -2.73700       -1.74790
C          2.39910        0.20990       -3.43160
C          3.63920        1.07780       -3.43090
C          3.58630        2.38190       -3.72070
O         -0.16670       -0.73160       -2.27800
N          2.54270       -0.84760       -4.43490
H          1.50890        0.82360       -3.69580
H          4.59970        0.63000       -3.19110
H          2.64550        2.86520       -3.96720
H          4.49280        2.97750       -3.71300
C         -0.36130       -3.43420       -1.79670
H          1.43940       -2.88160       -0.73850
H          1.66710       -3.20840       -2.49990
H         -1.04450       -3.00000       -1.03560
H         -0.23410       -4.51640       -1.58430
H         -0.81580       -3.32150       -2.80450
H          3.38630       -1.43260       -4.22930
H          2.65740       -0.41860       -5.38190
