22
TSA8_9_Br_Et_NH2
C          1.93140       -0.16250       -0.09440
C          1.55860       -0.53810       -1.33330
Br         2.02740        1.67280        0.45420
H          2.16770       -0.90890        0.65790
C          1.45840       -2.00260       -1.68660
C          2.44300       -0.42770       -4.87460
C          3.01880        0.25250       -3.87350
C          2.20470        1.12750       -2.96000
O          1.25260        0.38820       -2.27940
N          3.21260       -1.24680       -5.73760
H          1.37100       -0.35270       -5.03640
H          4.09150        0.18350       -3.71550
H          1.69400        1.90020       -3.57190
H          2.87800        1.64580       -2.24590
C          0.03210       -2.37490       -2.07420
H          1.76600       -2.64620       -0.83320
H          2.13950       -2.21570       -2.53650
H         -0.65180       -2.20580       -1.21610
H         -0.00950       -3.45010       -2.34910
H         -0.30830       -1.77220       -2.94290
H          4.23100       -1.34320       -5.61440
H          2.75070       -1.75430       -6.50590
