22
TSA8_9_Br_Et_NH2
C          2.91350       -0.98970       -2.21930
C          1.38840       -0.80620       -1.91250
Br         3.97880        0.25030       -1.15070
H          3.25580       -1.99870       -1.90230
C          0.68500       -2.17470       -1.90180
C          3.12290       -0.79660       -3.72990
C          2.65800        0.60830       -4.16360
C          1.51810        1.11370       -3.26370
O          0.70600        0.04020       -2.84660
N          4.50090       -1.06140       -4.14080
H          2.46550       -1.53870       -4.23490
H          3.46520        1.37200       -4.13190
H          0.91350        1.85830       -3.82100
H          1.90680        1.65490       -2.37260
C         -0.80270       -2.05040       -1.58520
H          1.15480       -2.81670       -1.12510
H          0.80090       -2.67050       -2.88970
H         -0.94910       -1.56880       -0.59600
H         -1.26070       -3.06170       -1.56530
H         -1.31870       -1.45170       -2.36580
H          5.14740       -0.34920       -3.73220
H          4.56410       -1.00580       -5.18320
