16
TSA8_9_NO2_I_H
C          2.01480       -0.00870        0.08710
C          1.27330       -0.29500        1.17160
N          2.31910       -0.95560       -0.93530
H          2.40030        1.00220       -0.01740
I          0.92930        1.27030        2.57500
C         -1.19570       -3.93930        3.19300
C         -0.40090       -3.35150        2.29580
C         -0.05540       -1.89680        2.40520
O          0.76340       -1.53930        1.35630
H         -1.43420       -4.99380        3.09890
H         -1.61250       -3.37630        4.02270
H         -0.00030       -3.94200        1.47620
H          0.46730       -1.72000        3.37060
H         -0.98990       -1.29440        2.36960
O          2.97940       -0.61520       -1.86870
O          1.88170       -2.19600       -0.87770
