16
TSA8_9_NO2_I_H
C          0.51310       -1.19970        0.38050
C          1.14200       -0.30740        1.46770
N          1.56380       -1.85030       -0.39200
H         -0.06730       -0.56400       -0.32340
I         -0.16200        1.21530        2.26240
C         -0.44450       -2.19970        1.06110
C          0.27390       -2.93770        2.19540
C          0.89640       -1.90990        3.14600
O          1.81050       -1.06230        2.46720
H         -0.87040       -2.91470        0.32550
H         -1.29300       -1.63760        1.50800
H          1.07330       -3.59780        1.80220
H          1.44600       -2.45850        3.93890
H          0.10910       -1.32240        3.66510
O          2.35820       -1.18050       -0.98070
O          1.60660       -3.15880       -0.53190
