14
TSA8_9_F_Br_I
C          1.63160       -1.76760       -0.79100
C          1.42390       -0.96590        0.46820
F          1.19300       -1.04590       -1.89140
H          2.72140       -1.94840       -0.90670
Br         2.00060       -1.64540        2.16210
C          0.90460       -3.12140       -0.73250
C         -0.58750       -2.94060       -0.60840
C         -1.27270       -3.41780        0.43480
O          0.89640        0.13420        0.42010
I          1.31040       -4.24670       -2.50810
H          1.30410       -3.71160        0.12140
H         -1.12140       -2.40630       -1.38900
H         -0.77550       -3.95630        1.23580
H         -2.34600       -3.26860        0.49210
