21
TSA8_9_H_Et_OH
C          3.16520        1.94820        0.38350
C          1.62270        1.89650        0.14060
H          3.48640        1.02440        0.91240
H          3.72270        1.98410       -0.57800
C          1.23860        2.71190       -1.10470
C          3.47950        3.14420        1.28240
C          2.74290        2.98150        2.62730
C          1.48640        2.10410        2.47870
O          0.84500        2.36240        1.25000
O          4.86210        3.25630        1.48710
H          3.10070        4.05100        0.75810
H          3.37750        2.50560        3.40630
H          0.79480        2.30440        3.32310
H          1.74630        1.02180        2.54150
C         -0.25010        2.58310       -1.41930
H          1.80910        2.33100       -1.97890
H          1.48710        3.78480       -0.95780
H         -0.51660        1.51760       -1.58580
H         -0.48570        3.15860       -2.33900
H         -0.86310        2.98770       -0.58670
H          5.02180        4.16970        1.84190
