17
TSA8_9_F_I_CH2F
C          1.87160        0.05630       -0.18800
C          1.39760        0.83370       -1.18000
F          2.36750        0.55530        0.97320
H          1.84850       -1.02180       -0.30240
I          0.62620       -0.11290       -2.90160
C          4.20350        4.05440       -0.86460
C          3.49110        2.99070       -0.46620
C          1.99670        3.05860       -0.27730
O          1.36480        2.19730       -1.15530
C          5.68540        3.96070       -1.06410
H          3.71190        5.00410       -1.05700
H          4.00000        2.04930       -0.28410
H          1.63400        4.08660       -0.49350
H          1.71350        2.83330        0.77130
F          6.30360        3.61500        0.12380
H          6.07920        4.94100       -1.40490
H          5.91370        3.19570       -1.83620
