21
TSA8_9_CBr3_CCl3_OH
C          1.99370       -0.09520       -0.02910
C          1.64100       -0.81200        1.06960
C          1.77480       -0.44060       -1.49290
H          2.51090        0.84610        0.10110
C          1.90180       -0.29360        2.49090
C          0.40340       -5.15210        2.12120
C          0.99890       -3.95970        2.27300
C          1.63030       -3.23500        1.11820
O          1.01530       -2.01010        0.92950
O         -0.14300       -5.79950        3.17410
H          0.35540       -5.62040        1.14310
H          1.03990       -3.50410        3.25730
H          1.53550       -3.82710        0.18370
H          2.71680       -3.11680        1.31500
Br         0.89020        1.06330       -2.33210
Br         3.50970       -0.65030       -2.32320
Br         0.71840       -2.01370       -1.93360
Cl         3.00740       -1.36500        3.38670
Cl         2.60580        1.35080        2.59320
Cl         0.34870       -0.24010        3.36180
H         -0.11760       -5.44220        4.07360
