22
TSA8_9_NO2_CF3_CH2F
C          2.83720       -1.72430       -0.59920
C          1.60430       -2.27750        0.09650
N          2.58670       -0.35770       -1.02790
H          3.66690       -1.70430        0.14510
C          1.66390       -2.68530        1.54370
C          3.33660       -2.59570       -1.79310
C          2.30900       -2.73140       -2.89920
C          2.52780       -2.26440       -4.13230
O          0.54700       -2.37200       -0.50880
C          3.76000       -4.00060       -1.33640
H          4.24770       -2.09760       -2.19680
H          1.36700       -3.23070       -2.69780
H          1.76890       -2.38540       -4.89860
H          3.45450       -1.76070       -4.38840
O          3.23440        0.53800       -0.57540
O          1.63560       -0.08750       -1.89740
F          0.42820       -3.14090        1.97110
F          2.59290       -3.69520        1.70790
F          2.03090       -1.59880        2.31560
F          4.76270       -3.91950       -0.38600
H          4.15150       -4.57510       -2.20320
H          2.89790       -4.55620       -0.91010
