22
TSA8_9_NO2_CF3_CH2F
C          1.70420       -0.06240        0.01580
C          1.46860       -1.40420        0.02580
N          1.88340        0.74380       -1.14910
H          1.73280        0.46250        0.96650
C          1.19940       -2.12680        1.32610
C          4.01110       -4.04140       -2.83680
C          3.01230       -3.68550       -2.01870
C          2.48200       -2.28270       -2.01310
O          1.45780       -2.18770       -1.08770
C          4.54840       -5.43990       -2.83800
H          4.44620       -3.31080       -3.51370
H          2.58050       -4.42040       -1.34310
H          2.08990       -2.04260       -3.02410
H          3.31820       -1.59300       -1.75980
O          2.13030        1.90310       -1.01460
O          1.59970        0.29390       -2.35060
F         -0.04380       -2.72750        1.25890
F          2.15920       -3.10580        1.50370
F          1.22160       -1.28410        2.42500
F          5.05350       -5.75200       -1.58870
H          5.36250       -5.52640       -3.58760
H          3.74120       -6.15600       -3.09960
