18
TSA8_9_NO2_Br_NO2
C          2.01220       -0.07670        0.09770
C          1.26720       -0.70900        1.02150
N          2.23460       -0.57920       -1.21880
H          2.46710        0.87290        0.36860
Br         1.06830        0.12700        2.74520
C         -0.38520       -5.04720        1.51500
C         -0.62510       -3.84130        0.96970
C         -0.15250       -2.57250        1.61800
O          0.67290       -1.89820        0.74460
N         -0.83100       -6.25640        0.91020
H          0.16520       -5.11060        2.45010
H         -1.17660       -3.76060        0.03740
H          0.39610       -2.78820        2.56180
H         -1.03930       -1.94510        1.85250
O          2.90560        0.05050       -1.97790
O          1.70810       -1.71690       -1.61940
O         -1.43770       -6.24530       -0.11890
O         -0.57260       -7.40540        1.49520
