17
TSA8_9_Cl_CBr3_F
C          1.83850       -0.25450       -0.01330
C          1.54130       -1.49280       -0.48400
Cl         2.08120        1.17630       -1.01430
H          1.90220       -0.05980        1.04800
C          1.26190       -2.66250        0.44760
C          3.52070       -2.26870       -4.71770
C          2.73520       -2.45680       -3.65430
C          2.24180       -1.29710       -2.84060
O          1.44380       -1.77100       -1.81620
F          3.95490       -3.33450       -5.43930
H          3.82050       -1.26870       -5.01660
H          2.45090       -3.46860       -3.37730
H          1.64030       -0.62720       -3.49130
H          3.12920       -0.75640       -2.44980
Br         1.36140       -2.29990        2.36160
Br        -0.51620       -3.34340        0.08760
Br         2.53560       -4.07240        0.06770
