17
TSA8_9_Cl_CBr3_F
C          3.21270       -1.50660       -1.46830
C          1.85940       -2.24040       -1.29890
Cl         3.11200        0.18850       -0.88320
H          4.04560       -1.97760       -0.90640
C          1.47680       -2.67640        0.13100
C          3.56980       -1.52670       -2.96980
C          2.31640       -1.58430       -3.86440
C          1.11850       -0.92730       -3.16500
O          0.78710       -1.51590       -1.90440
F          4.32940       -2.64990       -3.25450
H          4.19570       -0.63990       -3.20630
H          2.02340       -2.64800       -4.01200
H          0.24140       -1.02670       -3.83790
H          1.31440        0.15720       -3.02920
Br         1.10880       -1.19320        1.32890
Br        -0.13080       -3.75510        0.03770
Br         2.85690       -3.79290        0.91540
