19
TSA8_9_I_NO2_CF3
C          1.79200        0.14040       -0.07230
C          1.46860        1.44530       -0.18450
I          2.01030       -0.88020        1.77350
H          1.92380       -0.47260       -0.95750
N          1.27670        2.03390       -1.47020
C          2.64860        4.82780        0.52190
C          3.16760        3.67890        0.97880
C          2.32090        2.67980        1.71830
O          1.28690        2.21280        0.92370
C          3.49300        5.83000       -0.20800
H          1.59570        5.04510        0.68260
H          4.22140        3.46050        0.82700
H          1.89150        3.17350        2.61540
H          2.95950        1.84210        2.06170
O          0.95720        3.18050       -1.55750
O          1.43130        1.32630       -2.57000
F          4.01730        5.25810       -1.35280
F          2.71880        6.91960       -0.56200
F          4.52600        6.25690        0.60670
