18
TSA8_9_CN_CF3_I
C          1.66480       -0.07320        0.02130
C          1.59200       -1.39290       -0.29900
C          1.80880        1.02890       -0.90620
H          1.59790        0.22410        1.05940
C          1.45750       -2.42420        0.79280
C          1.94410       -1.61430       -4.89110
C          1.88540       -0.98710       -3.71280
C          0.90630       -1.38220       -2.65390
O          1.59360       -1.88110       -1.56930
I          3.37090       -1.02810       -6.32840
H          1.27830       -2.44140       -5.12190
H          2.57370       -0.17770       -3.49960
H          0.22420       -2.18170       -3.02000
H          0.26320       -0.52460       -2.37650
N          1.92250        1.94230       -1.60870
F          0.13120       -2.80670        0.87170
F          2.22110       -3.53760        0.49180
F          1.86010       -1.93420        2.02230
