17
TSA8_9_F_I_CBr3
C          3.28670        1.38100       -0.69040
C          1.80280        1.16060       -0.83200
F          3.81270        0.37810        0.10600
H          3.72440        1.28410       -1.70360
I          0.95820        0.81960       -2.73740
C          3.62260        2.78910       -0.12250
C          3.08650        2.92940        1.29030
C          2.15920        3.83750        1.61080
O          1.07380        1.15660        0.14730
C          5.14420        3.11650       -0.15410
H          3.12900        3.53490       -0.78700
H          3.46400        2.27370        2.06940
H          1.75240        4.51370        0.86540
H          1.80020        3.90740        2.63240
Br         5.45380        4.92960        0.47850
Br         6.22160        1.92570        0.94730
Br         5.84570        3.05410       -1.96670
