20
TSA8_9_NH2_NH2_NH2
C          1.82750       -0.02810        0.18740
C          1.54020       -0.40020        1.46890
N          2.01710       -0.87700       -0.93480
H          1.90730        1.03730       -0.01200
N          1.35710        0.63730        2.42210
C          4.08910       -3.72020        2.09640
C          3.32330       -2.91680        1.34520
C          1.82080       -2.90170        1.47230
O          1.40790       -1.67450        1.94940
N          5.50110       -3.69000        1.98440
H          3.63450       -4.39710        2.81430
H          3.79560       -2.23950        0.64080
H          1.49740       -3.66590        2.21240
H          1.30200       -3.17930        0.53860
H          2.21890       -0.44280       -1.84650
H          1.93420       -1.89180       -0.92040
H          1.14920        0.40040        3.40180
H          1.45070        1.63160        2.16630
H          5.97010       -3.04920        1.32710
H          6.07360       -4.29980        2.58420
