25
TSA8_9_CHF2_NO2_Et
C          2.88220       -0.14300        1.42260
C          1.54840        0.58760        1.58660
C          2.73600       -1.10840        0.21730
H          3.65530        0.60590        1.15280
N          1.44490        1.93620        1.40520
C          3.30800       -0.74410        2.81230
C          2.51540       -1.97850        3.19520
C          1.67760       -1.99740        4.23560
O          0.55220       -0.05620        1.89000
C          4.82910       -0.96850        3.04880
H          3.08640        0.07170        3.54100
H          2.63260       -2.88480        2.61080
H          1.52600       -1.11890        4.85430
H          1.13460       -2.90660        4.47310
F          3.91290       -1.72360       -0.12870
F          1.76730       -2.07170        0.43900
H          2.42040       -0.51540       -0.66860
O          0.38970        2.47950        1.54290
O          2.49550        2.65930        1.08090
C          5.51540       -2.15140        2.36550
H          4.95650       -1.14080        4.14130
H          5.38140       -0.03590        2.80090
H          5.01110       -3.10680        2.61760
H          6.56150       -2.21250        2.73420
H          5.58990       -2.02420        1.27820
