23
TSA8_9_CH2F_Me_Me
C          2.00320        0.60650       -2.16020
C          0.66550       -0.04270       -2.45230
C          1.97710        1.13490       -0.71150
H          2.79550       -0.17360       -2.22690
C          0.59070       -1.50600       -2.76800
C          2.31780        1.72690       -3.19830
C          3.68950        2.31710       -2.95610
C          3.86750        3.61040       -2.66980
O         -0.35960        0.62380       -2.43090
C          2.28580        1.19240       -4.63950
H          1.53940        2.51930       -3.11440
H          4.55950        1.66870       -3.01760
H          3.02580        4.29210       -2.59840
H          4.86860        3.99420       -2.50290
F          3.21120        1.62640       -0.32760
H          1.71740        0.30620       -0.01810
H          1.21570        1.93690       -0.60110
H          1.19640       -1.72420       -3.67250
H         -0.45890       -1.81630       -2.95560
H          0.98960       -2.09130       -1.91250
H          1.28140        0.79470       -4.89450
H          3.03580        0.38360       -4.77620
H          2.50970        2.01360       -5.35440
