23
TSA8_9_CH2F_Me_Me
C          1.77600       -0.03690       -0.16450
C          1.43090       -0.24960       -1.46000
C          2.00120        1.29740        0.49290
H          1.87460       -0.89460        0.49470
C          1.15710       -1.65040       -1.93100
C          2.38310        2.69270       -4.93760
C          2.59980        1.68070       -4.08610
C          2.19430        1.75370       -2.64300
O          1.29400        0.73630       -2.38870
C          2.78970        2.58720       -6.37480
H          1.90530        3.60670       -4.59570
H          3.07920        0.77150       -4.43960
H          1.71420        2.73030       -2.41630
H          3.11370        1.64600       -2.02710
F          3.29750        1.36390        0.96640
H          1.30040        1.38860        1.34890
H          1.80850        2.16180       -0.16400
H          1.85890       -1.90160       -2.75350
H          0.11750       -1.71230       -2.31450
H          1.27870       -2.40390       -1.12380
H          2.25830        1.73880       -6.85570
H          3.88570        2.42490       -6.44880
H          2.52720        3.52420       -6.90890
