20
TSA8_9_CHF2_CH2F_I
C          2.53530        0.62900        1.33910
C          1.49450        1.45680        0.60740
C          2.39100       -0.85380        0.92430
H          3.52690        0.98060        0.97650
C          1.93260        2.54390       -0.33300
C          2.54690        0.87100        2.88370
C          1.37090        0.32050        3.66160
C          0.15030        0.86210        3.63370
O          0.30310        1.22240        0.73990
I          4.35210        0.08960        3.76480
H          2.63110        1.96100        3.08640
H          1.52880       -0.53330        4.31410
H         -0.06810        1.74540        3.04740
H         -0.64500        0.42980        4.23230
F          3.41310       -1.62960        1.43540
F          1.17830       -1.37570        1.33960
H          2.44070       -0.92820       -0.18350
F          0.84010        3.16370       -0.91460
H          2.56690        2.10820       -1.13350
H          2.52130        3.30150        0.22520
