20
TSA8_9_CHF2_CH2F_I
C          2.04010        0.12440        0.19630
C          1.63790        1.37830        0.56980
C          1.92530       -1.25240        0.81610
H          2.55090        0.05560       -0.76090
C          1.92460        2.51510       -0.37900
C          2.41070        1.51550        4.78080
C          2.07810        0.91490        3.63350
C          0.76910        1.19590        2.93960
O          0.99590        1.77620        1.71190
I          4.26640        1.11120        5.70150
H          1.74230        2.22580        5.25820
H          2.77890        0.21850        3.18680
H          0.17910        1.92230        3.53950
H          0.11030        0.31630        2.85430
F          3.19490       -1.76330        1.00840
F          1.23730       -1.34330        1.99510
H          1.39700       -1.90270        0.08770
F          0.73510        3.11580       -0.74890
H          2.45680        2.19600       -1.30110
H          2.56060        3.26330        0.13760
