17
TSA8_9_H_CBr3_Br
C          1.21500        1.17480        1.53350
C          1.74990        2.24260        0.59970
H          1.76260        0.23080        1.32860
H          0.14370        0.98530        1.30880
C          0.88930        2.82580       -0.50490
C          1.35440        1.51490        3.03610
C          2.79170        1.66680        3.47540
C          3.66990        0.66200        3.38560
O          2.91550        2.59430        0.70800
Br         0.36340        3.12230        3.49840
H          0.90550        0.68530        3.62430
H          3.12870        2.61280        3.88900
H          3.37910       -0.30610        2.99030
H          4.69330        0.80500        3.71650
Br         0.33960        1.41210       -1.71200
Br        -0.70060        3.68450        0.19550
Br         1.85320        4.15100       -1.55300
