17
TSA8_9_H_CBr3_Br
C          1.92780        0.24750        0.06000
C          1.69860        1.55180        0.32860
H          2.30270       -0.43180        0.81660
H          1.75090       -0.18730       -0.91420
C          1.17410        2.51870       -0.71820
C          1.87560        2.23600        4.96180
C          2.54700        2.36460        3.81300
C          2.38430        1.39320        2.68150
O          1.93240        2.07390        1.56820
Br         2.12440        3.50440        6.37050
H          1.18150        1.41570        5.11660
H          3.23480        3.19550        3.68650
H          1.66160        0.58900        2.94510
H          3.37570        0.93810        2.47010
Br         0.84780        1.77690       -2.49210
Br        -0.49960        3.26710       -0.09210
Br         2.44690        3.96490       -0.92520
