17
TSA8_9_H_CF3_H
C          1.91390        0.23190       -0.14810
C          1.57660        1.37810       -0.77700
H          2.26930        0.20340        0.87240
H          1.82810       -0.72950       -0.64310
C          1.05700        1.35730       -2.19410
C          3.10510        5.29870        1.28090
C          3.23790        4.10950        0.68620
C          2.31690        2.96320        0.98450
O          1.66400        2.60400       -0.18220
H          3.78930        6.10530        1.03840
H          2.32030        5.48000        2.00910
H          4.03500        3.96540       -0.03720
H          1.55660        3.25230        1.74180
H          2.93290        2.14560        1.40400
F         -0.20560        1.91890       -2.22260
F          1.89820        2.10950       -2.99280
F          0.98330        0.07560       -2.71390
