17
TSA8_9_H_CF3_H
C          3.05560        1.95770       -0.53040
C          1.53420        1.65490       -0.33810
H          3.63920        1.37020        0.21140
H          3.41090        1.65570       -1.53840
C          0.74980        1.74120       -1.65310
C          3.31090        3.43720       -0.25130
C          2.87380        3.77990        1.18200
C          1.77390        2.82450        1.67860
O          0.89420        2.49710        0.62570
H          4.37530        3.71700       -0.40210
H          2.70130        4.03500       -0.96000
H          3.71610        3.71260        1.90430
H          1.21780        3.30180        2.51160
H          2.21760        1.89070        2.09730
F         -0.56890        1.39600       -1.42040
F          0.79100        3.02290       -2.17060
F          1.27620        0.85820       -2.57880
