26
TSA8_9_CCl3_Et_Me
C          1.39000        0.08990       -0.17450
C          1.30600        1.27520        0.47100
C          1.78650       -1.20870        0.49420
H          1.15900        0.05040       -1.23550
C          0.85280        2.51110       -0.30490
C          4.56030        1.20500        3.32420
C          3.22640        1.29190        3.42060
C          2.41220        2.13670        2.48510
O          1.54190        1.30650        1.81010
C          5.33840        0.32270        4.25030
H          5.09510        1.76190        2.56010
H          2.70230        0.72220        4.18330
H          3.08720        2.66730        1.78420
H          1.83720        2.87360        3.08250
Cl         0.68240       -1.60570        1.83940
Cl         1.71230       -2.54040       -0.68710
Cl         3.45780       -1.12230        1.10340
C          1.83240        3.67990       -0.31540
H         -0.11240        2.86250        0.11780
H          0.66710        2.24020       -1.36790
H          1.93390        4.12920        0.69150
H          1.43540        4.47960       -0.97600
H          2.82140        3.35700       -0.70410
H          4.99690       -0.72930        4.13920
H          5.19180        0.64930        5.29990
H          6.41770        0.37590        3.99850
