26
TSA8_9_CCl3_Et_Me
C          2.66670        0.36710        1.14330
C          1.42880        1.27360        0.91920
C          2.18150       -1.10640        1.38200
H          3.24290        0.31450        0.19240
C          1.38380        2.23670       -0.28490
C          3.58080        1.05970        2.20580
C          2.77980        1.48310        3.43780
C          1.59870        2.35130        2.99850
O          0.73880        1.67840        2.09440
C          4.82680        0.27640        2.62330
H          3.95400        1.99790        1.74460
H          2.43380        0.61420        4.02720
H          1.95850        3.30710        2.57990
H          1.01540        2.61750        3.90440
Cl         1.20230       -1.34640        2.85420
Cl         1.15800       -1.61650        0.00550
Cl         3.52770       -2.27870        1.40210
C          2.30590        3.45040       -0.21690
H          0.33830        2.58660       -0.41770
H          1.65680        1.65170       -1.18900
H          2.02160        4.13170        0.60530
H          2.20850        4.02700       -1.16100
H          3.36430        3.13920       -0.11720
H          4.55630       -0.63350        3.19560
H          5.45880        0.90430        3.28720
H          5.42730        0.00350        1.72950
