22
TSA8_9_NO2_CHF2_CF3
C          2.61240        0.44510       -2.16310
C          1.07680        0.48420       -1.81720
N          3.40350        1.00320       -1.06970
H          2.93030       -0.61550       -2.28140
C          0.37160       -0.82030       -2.20310
C          2.80570        1.20400       -3.50470
C          2.31240        2.65690       -3.36960
C          1.13390        2.75400       -2.38900
O          0.36630        1.57130       -2.41800
C          4.20310        1.13170       -4.15030
H          2.12330        0.69980       -4.22390
H          3.09530        3.36530       -3.02180
H          0.50530        3.62710       -2.65950
H          1.48440        2.95210       -1.35330
O          4.59450        0.94730       -1.10670
O          2.82420        1.41850        0.03760
F         -0.94720       -0.77310       -1.79050
F          0.40980       -1.01330       -3.57220
H          0.86450       -1.67890       -1.70050
F          4.59810       -0.18880       -4.27120
F          4.15020        1.68990       -5.41550
F          5.14790        1.82390       -3.41710
