22
TSA8_9_NH2_CH2F_Me
C          2.19020        1.90980        0.02310
C          0.96350        2.28780       -0.78540
N          1.90830        0.70610        0.81000
H          3.03260        1.67570       -0.66730
C          1.01930        2.31690       -2.28460
C          2.62950        3.07130        0.95260
C          3.78760        2.63770        1.82360
C          3.69650        2.62210        3.15780
O         -0.08000        2.56800       -0.21240
C          3.05720        4.30540        0.14460
H          1.76720        3.35780        1.59670
H          4.71850        2.32920        1.35580
H          2.78300        2.92240        3.66300
H          4.54300        2.30540        3.75770
H          1.11340        0.87490        1.46750
H          1.65880       -0.08220        0.16890
F         -0.20820        2.67980       -2.81250
H          1.29120        1.31080       -2.66560
H          1.78330        3.05150       -2.61320
H          3.91840        4.06170       -0.51530
H          3.35750        5.12520        0.83200
H          2.22130        4.67650       -0.48400
