22
TSA8_9_NH2_CH2F_Me
C          2.77880        1.99600       -0.24350
C          1.27380        1.66280        0.05280
N          3.67120        0.97000        0.30940
H          2.95730        2.00160       -1.34320
C          0.42280        1.87960       -1.19910
C          3.09310        3.39300        0.32030
C          2.78770        3.44740        1.82990
C          1.58500        2.55700        2.19030
O          0.70150        2.45340        1.09820
C          4.51720        3.86200        0.01520
H          2.39180        4.09680       -0.18110
H          3.64050        3.14350        2.47530
H          1.06220        2.99330        3.06590
H          1.89610        1.54020        2.51620
H          3.60870        0.89020        1.34590
H          3.43470        0.04180       -0.10900
F         -0.88960        1.53160       -0.94010
H          0.79770        1.24880       -2.03250
H          0.46090        2.94710       -1.50660
H          4.69010        3.85960       -1.08240
H          5.26370        3.19620        0.49790
H          4.66280        4.89710        0.39070
