19
TSA8_9_CCl3_I_NH2
C          0.36910       -1.59220       -0.01790
C          0.94360       -0.66010        1.03480
C          1.44490       -1.92580       -1.10880
H         -0.42060       -1.01900       -0.55220
I          0.17330        1.29350        1.25920
C         -0.37830       -2.77340        0.69660
C          0.48270       -3.60250        1.63380
C          0.25350       -3.64030        2.95130
O          1.85480       -1.01760        1.76350
N         -1.05880       -3.65160       -0.25620
H         -1.17290       -2.27920        1.30330
H          1.29800       -4.19530        1.23950
H          0.88240       -4.24720        3.59430
H         -0.55460       -3.07180        3.40030
Cl         0.74280       -2.76530       -2.51910
Cl         2.12350       -0.40780       -1.76870
Cl         2.82160       -2.88840       -0.50650
H         -0.36940       -4.30070       -0.69840
H         -1.73890       -4.25310        0.26410
