19
TSA8_9_CCl3_I_NH2
C          1.90810        0.02660        0.02470
C          1.24710       -0.66110        0.97690
C          2.19230       -0.40330       -1.40340
H          2.27360        1.01270        0.29520
I          1.00820        0.27960        2.87300
C         -1.22720       -4.77550        1.63040
C         -0.38510       -3.93630        1.01720
C         -0.10410       -2.57620        1.58280
O          0.74760       -1.89830        0.73780
N         -1.48550       -6.06420        1.09940
H         -1.72530       -4.47310        2.54760
H          0.10530       -4.24110        0.09560
H          0.35660       -2.69270        2.58600
H         -1.05750       -2.00780        1.67030
Cl         1.60970       -2.02330       -1.88650
Cl         1.44080        0.78240       -2.49650
Cl         3.95280       -0.36560       -1.66290
H         -1.02070       -6.38940        0.23900
H         -2.14420       -6.69240        1.58100
