19
TSA8_9_CCl3_I_NH2
C          0.13200       -1.76870       -0.00110
C          0.67530       -0.97860        1.21240
C          1.23260       -1.87670       -1.11270
H         -0.67770       -1.16560       -0.46850
I         -0.80870        0.07110        2.37380
C         -0.52000       -3.07330        0.55660
C          0.42910       -3.82530        1.49830
C          0.93820       -2.85750        2.57120
O          1.58720       -1.73300        1.99770
N         -1.04180       -3.95510       -0.48600
H         -1.38410       -2.74860        1.18000
H          1.27850       -4.27250        0.94850
H          1.66390       -3.39920        3.21230
H          0.10920       -2.54480        3.24180
Cl         0.59650       -2.58760       -2.62170
Cl         1.76570       -0.23010       -1.56300
Cl         2.70170       -2.77550       -0.64430
H         -0.25470       -4.46270       -0.94940
H         -1.64610       -4.68280       -0.04020
