17
TSA8_9_I_CCl3_Cl
C          2.10500       -1.85840       -0.60930
C          0.83410       -2.40940        0.00270
I          1.79980        0.23990       -0.97650
H          2.94040       -1.94990        0.11870
C          0.80960       -2.93000        1.42700
C          2.48250       -2.58880       -1.91710
C          3.77110       -2.04210       -2.47660
C          3.83870       -1.48120       -3.68780
O         -0.19240       -2.40410       -0.66200
Cl         2.71310       -4.33840       -1.64590
H          1.65490       -2.46640       -2.65050
H          4.67430       -2.10810       -1.87630
H          2.95950       -1.39630       -4.31880
H          4.78580       -1.09990       -4.05540
Cl         1.94570       -4.28690        1.63060
Cl         1.27160       -1.62690        2.55100
Cl        -0.81770       -3.50430        1.89220
