17
TSA8_9_I_CCl3_Cl
C          1.73200       -0.18430        0.00580
C          1.53520       -1.52610       -0.08570
I          2.02990        1.19690       -1.58380
H          1.69930        0.31770        0.96330
C          1.23840       -2.37950        1.13840
C          2.93990       -3.90940       -3.85090
C          3.07340       -3.32390       -2.65630
C          2.41990       -2.01250       -2.33330
O          1.55740       -2.19940       -1.27170
Cl         3.72640       -5.44540       -4.17630
H          2.34710       -3.45010       -4.63600
H          3.67220       -3.80590       -1.88840
H          1.84540       -1.62700       -3.20280
H          3.23320       -1.30340       -2.07970
Cl         2.48700       -3.64280        1.27040
Cl         1.18740       -1.50980        2.70350
Cl        -0.34110       -3.17340        0.91730
