17
TSA8_9_I_CCl3_Cl
C          3.05130       -2.06560       -0.50900
C          1.51590       -1.77040       -0.59410
I          4.11770       -0.19610       -0.55020
H          3.32220       -2.53900        0.45830
C          0.69380       -2.38720        0.55260
C          3.45390       -2.99560       -1.66330
C          3.04510       -2.39950       -3.01870
C          1.73250       -1.60910       -2.89380
O          0.94590       -2.14050       -1.85030
Cl         5.18630       -3.42490       -1.64270
H          2.88020       -3.93820       -1.53210
H          3.81030       -1.72330       -3.45800
H          1.18160       -1.64800       -3.85600
H          1.93480       -0.52880       -2.70490
Cl         0.78800       -4.16960        0.53520
Cl         1.26020       -1.78570        2.13430
Cl        -1.01560       -1.91140        0.38320
