17
TSA8_9_I_Cl_CBr3
C          1.91900        0.16510       -0.16270
C          1.40100        1.18990       -0.87730
I          2.68810        0.10310        1.81820
H          1.94510       -0.81260       -0.63400
Cl         0.80990        0.82120       -2.49080
C          3.95040        4.46370        0.25650
C          3.33930        3.27320        0.37000
C          1.85110        3.15670        0.58430
O          1.26850        2.48690       -0.47220
C          5.43580        4.57340        0.03060
H          3.36290        5.37520        0.32500
H          3.92930        2.36580        0.29750
H          1.39730        4.16930        0.63240
H          1.60890        2.66670        1.54480
Br         5.95130        6.43810       -0.08500
Br         6.41160        3.76230        1.49810
Br         5.93640        3.70200       -1.62930
