17
TSA8_9_I_Cl_CBr3
C          3.21160        1.66330       -0.39450
C          1.67970        1.59740       -0.68090
I          3.65330        0.35970        1.26810
H          3.75280        1.19450       -1.24260
Cl         1.39980        1.62120       -2.44390
C          3.60120        3.15340       -0.22860
C          2.80790        3.76390        0.94670
C          1.43620        3.08830        1.11680
O          0.92050        2.67610       -0.12870
C          5.11560        3.50540       -0.18350
H          3.22000        3.64390       -1.15290
H          3.33050        3.70040        1.92470
H          0.73930        3.80200        1.60220
H          1.49170        2.21500        1.80210
Br         5.33230        5.43670       -0.22660
Br         6.06340        2.87640        1.39250
Br         6.03340        2.81360       -1.74950
