19
TSA8_9_OH_Me_OH
C          2.79290        1.13310       -0.04390
C          1.39760        1.53340       -0.46680
O          2.73520       -0.13680        0.55510
H          3.39740        1.07820       -0.98230
C          1.10550        1.84330       -1.90550
C          3.52730        2.13690        0.88480
C          2.91860        2.30700        2.26210
C          1.78130        2.97050        2.48850
O          0.48620        1.55950        0.34500
O          4.84310        1.66890        1.04380
H          3.56220        3.12870        0.37330
H          3.45600        1.91310        3.12070
H          1.22400        3.43410        1.68370
H          1.41120        3.07630        3.50330
H          3.58300       -0.60490        0.33640
H          1.72250        2.70610       -2.23280
H          0.03290        2.09720       -2.04450
H          1.34770        0.96080       -2.53410
H          5.40970        2.45580        1.26050
