19
TSA8_9_OH_Me_OH
C          1.79660        0.16730       -0.12690
C          1.42660        1.40220       -0.54030
O          2.16560       -0.09630        1.14180
H          1.78910       -0.65890       -0.83400
C          1.00290        1.60190       -1.96810
C          4.18280        3.74710        1.78560
C          3.44270        2.67960        1.45000
C          1.93620        2.70400        1.51750
O          1.39500        2.51120        0.25900
O          5.53220        3.71410        1.71150
H          3.70560        4.66220        2.12260
H          3.94000        1.77550        1.11390
H          1.59030        3.69400        1.88460
H          1.55210        1.95050        2.23460
H          2.41440       -0.99200        1.40760
H          1.67110        2.34950       -2.44490
H         -0.03920        1.98280       -1.99230
H          1.04790        0.66390       -2.56220
H          6.01700        2.93170        1.41210
