19
TSA8_9_OH_Me_OH
C          2.95580        1.15710        0.07020
C          1.44450        1.49530       -0.16670
O          3.08220        0.22890        1.11660
H          3.41900        0.71990       -0.84520
C          1.17780        1.79400       -1.64160
C          3.68160        2.45690        0.44870
C          3.06020        3.08180        1.71380
C          1.58220        2.67910        1.85930
O          0.95970        2.60580        0.59590
O          5.06850        2.28150        0.58830
H          3.51700        3.17070       -0.38700
H          3.57300        2.77280        2.65080
H          1.06250        3.42110        2.49970
H          1.47910        1.70100        2.38190
H          2.73660       -0.63540        0.77140
H          1.74280        2.69100       -1.97150
H          0.09330        1.97800       -1.79200
H          1.47150        0.92460       -2.26680
H          5.21660        1.63640        1.32780
