21
TSA8_9_CHF2_CN_Me
C          2.59790       -1.14970       -1.13900
C          1.26220       -1.54690       -0.42550
C          2.46660        0.35030       -1.51640
H          3.45600       -1.21330       -0.42900
C          1.48650       -1.86850        0.98920
C          2.83750       -2.19620       -2.27900
C          1.63020       -2.22380       -3.21180
C          0.32510       -2.27830       -2.40520
O          0.57200       -2.62470       -1.05470
C          4.13000       -2.19790       -3.10390
H          2.86750       -3.17770       -1.75270
H          1.61010       -1.36270       -3.91720
H         -0.30910       -3.05810       -2.86920
H         -0.24260       -1.32150       -2.46860
F          3.64370        0.85430       -2.03330
F          1.43500        0.58470       -2.40730
H          2.23060        0.92590       -0.59000
N          1.64760       -2.12470        2.10900
H          5.02500       -2.30940       -2.45800
H          4.22730       -1.31290       -3.76130
H          4.10030       -3.10280       -3.75980
