23
TSA8_9_CHF2_Me_CBr3
C          2.49840       -0.15010       -2.00830
C          1.28450       -0.99120       -1.50030
C          2.56180        1.13750       -1.16660
H          3.43760       -0.71190       -1.80610
C          1.68610       -2.14580       -0.58790
C          2.38280        0.01530       -3.56190
C          0.95730        0.43800       -3.98030
C         -0.11050       -0.28610       -3.14350
O          0.43980       -1.44120       -2.54510
C          3.48000        0.81820       -4.31740
H          2.49080       -1.03020       -3.93110
H          0.76060        1.53000       -3.95310
H         -0.96700       -0.55730       -3.79450
H         -0.52960        0.39680       -2.36540
F          3.73510        1.82800       -1.39490
F          1.47580        1.95770       -1.41310
H          2.56120        0.86820       -0.08840
H          2.29200       -2.88480       -1.15460
H          0.77590       -2.64720       -0.19830
H          2.27900       -1.76570        0.26990
Br         3.30880        0.49180       -6.22640
Br         3.36790        2.74960       -4.09510
Br         5.26250        0.22750       -3.81880
