22
TSA8_9_CN_Et_CN
C          2.83770       -1.04880       -0.46170
C          1.71440       -1.77710        0.25960
C          2.27750        0.19900       -1.07550
H          3.57340       -0.70460        0.29490
C          1.70310       -1.93660        1.76000
C          3.49090       -2.04860       -1.54020
C          2.85150       -1.70600       -2.84100
C          1.65910       -2.20260       -3.12900
O          0.81590       -2.29900       -0.38150
C          4.95080       -2.11230       -1.77240
H          3.27110       -3.10000       -1.23570
H          3.21330       -0.82820       -3.37520
H          1.24600       -3.01120       -2.54060
H          1.06960       -1.72870       -3.89600
N          1.79090        1.11540       -1.59740
C          0.95050       -3.20490        2.18470
H          1.23320       -1.04090        2.22490
H          2.74400       -2.02390        2.12760
H         -0.11890       -3.15520        1.88250
H          0.99880       -3.33930        3.28530
H          1.41880       -4.08930        1.70050
N          6.07250       -2.24790       -2.03560
