20
TSA8_9_NH2_OMe_I
C          1.82330        0.12330       -0.03750
C          1.76460       -0.47130        1.18140
N          1.80710       -0.50960       -1.30770
H          1.87680        1.20850       -0.04800
O          1.77450        0.37230        2.24550
C          4.39930       -3.80330        1.28170
C          3.63120       -2.89540        0.66870
C          2.13540       -2.93320        0.77910
O          1.69140       -1.81380        1.45420
I          6.50290       -3.70060        1.15630
H          3.96080       -4.60280        1.87170
H          4.09680       -2.10060        0.09520
H          1.82130       -3.81580        1.37990
H          1.63620       -3.07800       -0.19060
H          1.73180       -1.51280       -1.45860
H          1.85140        0.08370       -2.14900
C          2.01270       -0.04210        3.53730
H          1.92790        0.82580        4.22240
H          3.04470       -0.45110        3.61020
H          1.28200       -0.82050        3.84440
