26
TSA8_9_CF3_CF3_Et
C          1.91390       -0.13570        0.01610
C          1.53060       -1.45390        0.03630
C          1.97840        0.93560       -1.05500
H          2.24520        0.28570        0.95910
C          1.57200       -2.20990        1.35100
C          3.12570       -3.00120       -3.61970
C          2.58430       -2.05520       -2.83640
C          1.14990       -2.12630       -2.37480
O          1.10130       -2.23550       -1.00260
C          4.56660       -2.94390       -4.05240
H          2.52630       -3.84750       -3.94390
H          3.19900       -1.22450       -2.50840
H          0.66680       -3.03480       -2.79370
H          0.52140       -1.29580       -2.73410
F          3.29120        1.34930       -1.18140
F          1.52100        0.58670       -2.29510
F          1.22380        2.01230       -0.62780
F          0.30390       -2.67830        1.64080
F          2.42430       -3.29030        1.21790
F          2.00690       -1.44300        2.41960
C          4.85910       -1.71630       -4.91240
H          4.79760       -3.85340       -4.64730
H          5.22140       -2.93660       -3.15430
H          4.67000       -0.78060       -4.34570
H          5.92580       -1.72800       -5.22090
H          4.22370       -1.72680       -5.82340
