20
TSA8_9_CN_CCl3_NH2
C          1.63340       -0.07610       -0.04030
C          1.54160       -0.95010       -1.09720
C          1.82130        1.35580       -0.07240
H          1.54800       -0.45600        0.97250
C          1.56310       -2.43490       -0.79650
C          2.53140        0.95790       -4.74350
C          1.97700        1.36450       -3.59230
C          0.88170        0.58930       -2.92430
O          1.40080       -0.59650       -2.42380
N          3.54020        1.72610       -5.38080
H          2.18760        0.04490       -5.21930
H          2.30750        2.28830       -3.13190
H          0.03840        0.43260       -3.64730
H          0.43030        1.17360       -2.10820
N          1.96910        2.50460       -0.05420
Cl         2.48600       -3.34400       -2.02870
Cl         2.28270       -2.86910        0.79430
Cl        -0.11490       -2.96410       -0.84320
H          3.89710        2.59920       -4.96390
H          3.91310        1.42400       -6.29230
