20
TSA8_9_CN_CCl3_NH2
C          2.63540        0.24250       -1.74590
C          1.35990       -0.64570       -1.48440
C          2.47640        1.49740       -0.97730
H          3.56610       -0.26200       -1.40750
C          1.63360       -2.08930       -1.02160
C          2.70420        0.50100       -3.27020
C          1.42420        1.22570       -3.73080
C          0.19520        0.63160       -3.02640
O          0.47100       -0.68270       -2.60160
N          3.91310        1.19580       -3.71790
H          2.72220       -0.50830       -3.73990
H          1.44470        2.31310       -3.48460
H         -0.65020        0.63080       -3.74180
H         -0.12630        1.24990       -2.15380
N          2.32480        2.48350       -0.38780
Cl         2.61610       -2.99280       -2.20590
Cl         2.45180       -2.10950        0.55990
Cl         0.07710       -2.94360       -0.82830
H          3.80220        2.23160       -3.62930
H          4.03980        0.99080       -4.73850
