15
TSA8_9_CN_Cl_I
C          1.65250        0.04370        0.09500
C          1.68680       -0.19020        1.42540
C          1.77350       -0.96170       -0.93800
H          1.49920        1.06070       -0.24810
Cl         1.46980        1.16920        2.51470
C          2.08460       -4.80930        1.59480
C          1.96480       -3.58720        1.07360
C          1.10170       -2.53100        1.69400
O          1.85700       -1.41580        1.98950
I          3.30400       -6.23620        0.63140
H          1.55650       -5.08940        2.50060
H          2.50060       -3.35370        0.16330
H          0.63480       -2.89290        2.63680
H          0.27750       -2.27610        0.99730
N          1.86590       -1.73920       -1.79160
