15
TSA8_9_CN_Cl_I
C          2.50140       -1.50750        0.61790
C          1.40090       -0.74490        1.41330
C          2.09150       -1.55430       -0.79290
H          3.45040       -0.92220        0.64230
Cl         1.89630        0.85200        2.03750
C          2.56020       -2.97550        1.17980
C          1.14390       -3.54940        1.13090
C          0.17070       -2.60450        1.85560
O          0.85240       -1.52290        2.45890
I          3.83900       -4.47360        0.32840
H          2.87710       -2.95570        2.24680
H          0.82660       -3.67130        0.06630
H         -0.32260       -3.20630        2.64150
H         -0.62480       -2.22240        1.17490
N          1.73560       -1.60800       -1.89240
