17
TSA8_9_I_H_Me
C          1.92140        2.37790        0.66660
C          0.71840        2.93040       -0.04760
I          1.60320        0.27020        0.96060
H          2.80910        2.49490        0.00680
H          0.83110        3.37140       -1.03250
C          2.18100        3.10600        2.00810
C          3.39170        2.51530        2.69480
C          3.31470        1.94720        3.90250
O         -0.38710        2.88990        0.46910
C          2.42800        4.60720        1.79650
H          1.28230        2.99040        2.65530
H          4.35490        2.55380        2.19310
H          2.37180        1.88820        4.43750
H          4.20500        1.53370        4.36470
H          1.54620        5.09090        1.32670
H          3.31370        4.77170        1.14530
H          2.60610        5.10460        2.77420
