17
TSA8_9_I_H_Me
C          2.09240        2.44200        0.70080
C          1.02080        1.40140        1.13070
I          3.98540        1.47820        0.31360
H          1.79410        2.87450       -0.27900
H          0.04630        1.76020        0.73570
C          2.16300        3.53050        1.78240
C          2.54480        2.90310        3.13670
C          2.04160        1.45220        3.24610
O          0.83090        1.28280        2.54330
C          3.08630        4.69710        1.42060
H          1.13260        3.93960        1.88420
H          3.64070        2.88520        3.32570
H          1.90250        1.19660        4.31650
H          2.79380        0.72910        2.86230
H          2.75890        5.15820        0.46470
H          4.13750        4.35680        1.31280
H          3.04590        5.47160        2.21580
