20
TSA8_9_CN_NH2_CHF2
C          2.74390       -0.60920       -1.41300
C          1.76620       -1.71140       -0.92370
C          2.15670        0.72450       -1.05230
H          3.65990       -0.69640       -0.82630
N          2.00890       -2.41000        0.20940
C          2.96130       -0.80360       -2.99980
C          2.03220        0.17390       -3.65460
C          0.75870       -0.10450       -3.87500
O          0.78540       -2.00500       -1.58080
C          4.31070       -0.72430       -3.79120
H          2.69000       -1.86310       -3.19810
H          2.37150        1.20540       -3.74860
H          0.37210       -1.09680       -3.70390
H          0.10000        0.69840       -4.16620
N          1.62900        1.72900       -0.82690
H          1.37990       -3.18610        0.47450
H          2.79400       -2.17500        0.82950
F          4.77320        0.56330       -4.00240
F          5.31780       -1.50410       -3.25470
H          4.09840       -1.14350       -4.81070
