20
TSA8_9_CN_NH2_CHF2
C          2.86870       -0.48990       -1.54190
C          1.50900       -1.13730       -1.11230
C          2.63820        0.97300       -1.41270
H          3.67720       -0.75770       -0.83390
N          1.69940       -2.22640       -0.15640
C          3.15360       -0.98830       -2.99690
C          2.04150       -0.45840       -3.89920
C          0.66950       -0.65600       -3.24730
O          0.72400       -1.61570       -2.20770
C          4.50840       -0.78930       -3.70670
H          3.06600       -2.09790       -2.94760
H          2.18430        0.63030       -4.10700
H         -0.00190       -1.01430       -4.05240
H          0.24930        0.30110       -2.86530
N          2.43650        2.10170       -1.33350
H          2.33630       -2.95540       -0.55210
H          2.10520       -1.84660        0.72880
F          4.81940        0.53890       -3.92160
F          5.53580       -1.41590       -3.02620
H          4.42690       -1.29050       -4.70390
