19
TSA8_9_CH2F_Br_NH2
C          0.47390       -1.38390       -1.05600
C          0.85640       -1.26320        0.40330
C          1.71530       -1.13310       -1.93490
H         -0.23630       -0.55440       -1.27100
Br         0.04240        0.07270        1.50230
C         -0.29560       -2.70310       -1.40340
C          0.42280       -4.00200       -1.08060
C          0.55840       -4.45610        0.16960
O          1.72790       -1.96550        0.88800
N         -0.68370       -2.69340       -2.81880
H         -1.24420       -2.70290       -0.81680
H          0.79160       -4.62340       -1.89110
H          1.05160       -5.40460        0.35400
H          0.16090       -3.90600        1.01640
F          2.65270       -2.13950       -1.78210
H          2.18090       -0.16160       -1.66010
H          1.43560       -1.05880       -3.00570
H          0.15140       -2.84310       -3.43130
H         -1.34650       -3.48210       -3.00170
