19
TSA8_9_CH2F_Br_NH2
C          1.89700        0.00470       -0.01540
C          1.14900       -1.06570        0.29240
C          2.31760        0.34580       -1.41750
H          2.21760        0.66990        0.78100
Br         0.68610       -1.35210        2.13960
C         -1.10190       -4.81040       -1.80490
C         -0.31250       -3.72910       -1.75380
C         -0.10420       -2.98950       -0.46620
O          0.73230       -1.91540       -0.68140
N         -1.29500       -5.51480       -3.01920
H         -1.60360       -5.15930       -0.90660
H          0.18640       -3.38180       -2.65570
H          0.34980       -3.68100        0.27610
H         -1.08470       -2.62580       -0.08730
F          3.69770        0.37550       -1.48640
H          1.92080        1.34900       -1.67880
H          1.93950       -0.38270       -2.16470
H         -0.82930       -5.21700       -3.88870
H         -1.90630       -6.34300       -3.03710
