14
TSA8_9_F_F_Cl
C          2.05710       -0.13370        0.04280
C          1.29080       -1.14490        0.45180
F          2.23660        0.10800       -1.28220
H          2.54170        0.51050        0.77040
F          1.12300       -1.36060        1.78550
C         -0.46950       -4.95220       -1.56320
C         -0.66890       -3.64840       -1.34040
C         -0.16510       -2.96850       -0.10110
O          0.68510       -1.94550       -0.45790
Cl        -1.08020       -5.70590       -3.02690
H          0.06760       -5.56590       -0.84640
H         -1.21240       -3.05720       -2.07200
H          0.36960       -3.68690        0.56020
H         -1.03530       -2.55380        0.45260
