23
TSA8_9_H_Et_CBr3
C          1.89410       -0.11020       -0.13170
C          1.66370        0.20360       -1.42240
H          2.07520        0.63310        0.63250
H          1.89090       -1.14550        0.19520
C          1.39940       -0.89520       -2.42340
C          2.79270        3.66200       -3.45470
C          3.14550        3.26110       -2.22260
C          2.14780        2.63380       -1.29570
O          1.65560        1.48380       -1.89120
C          3.78470        4.26870       -4.41080
H          1.76090        3.53870       -3.77450
H          4.17100        3.38010       -1.88350
H          1.31280        3.34270       -1.11240
H          2.65790        2.43370       -0.33490
C          0.02100       -0.74090       -3.05760
H          1.45860       -1.90070       -1.95200
H          2.17420       -0.84090       -3.21690
H         -0.76790       -0.82480       -2.28220
H         -0.13320       -1.54470       -3.80770
H         -0.06750        0.24150       -3.56870
Br         2.90010        4.73130       -6.07210
Br         4.56490        5.88080       -3.66600
Br         5.19580        2.99830       -4.80980
