20
TSA8_9_CF3_CCl3_F
C          1.75800       -0.10900        0.06010
C          1.45060       -1.39270        0.39850
C          1.90490        0.47730       -1.32480
H          1.89970        0.62740        0.84020
C          1.24280       -1.81390        1.84870
C          3.53920       -4.89550       -1.83700
C          2.61630       -4.25000       -1.11950
C          2.29040       -2.81200       -1.39530
O          1.30360       -2.38710       -0.52200
F          3.82080       -6.19730       -1.57020
H          4.07350       -4.39080       -2.63660
H          2.09720       -4.77830       -0.32440
H          1.92180       -2.73250       -2.43930
H          3.21690       -2.20580       -1.27730
F          3.20860        0.89980       -1.50270
F          1.56600       -0.39090       -2.33820
F          1.06740        1.57270       -1.42240
Cl         2.42770       -3.07800        2.26240
Cl         1.40120       -0.51600        3.07320
Cl        -0.39170       -2.50190        2.01660
