20
TSA8_9_CF3_CCl3_F
C          2.78570       -1.30020       -0.28080
C          1.32640       -1.70130        0.06980
C          2.78160       -0.07400       -1.22650
H          3.31070       -0.91090        0.61820
C          1.03870       -2.21620        1.50120
C          3.59570       -2.49920       -0.83990
C          2.70900       -3.63680       -1.35880
C          1.38650       -3.11030       -1.90180
O          0.60070       -2.40240       -0.94510
F          4.41450       -3.02220        0.14740
H          4.26370       -2.14600       -1.65370
H          2.45850       -4.34340       -0.54690
H          0.80050       -3.99190       -2.23580
H          1.55280       -2.49600       -2.80520
F          4.08200        0.33930       -1.46100
F          2.18060       -0.33160       -2.44030
F          2.10370        0.96950       -0.62000
Cl         1.85980       -3.74000        1.91460
Cl         1.52850       -0.98720        2.69680
Cl        -0.71570       -2.46210        1.70110
