18
TSA8_9_F_H_OMe
C          2.83950        2.29950        0.74780
C          1.70920        1.23650        0.67510
F          4.03820        1.67790        1.04960
H          2.94600        2.78310       -0.24720
H          0.91770        1.65060        0.01440
C          2.45610        3.31720        1.83240
C          2.28440        2.62130        3.20740
C          1.92010        1.13540        3.02040
O          1.05800        0.95510        1.91730
O          3.24380        4.50430        1.82180
H          1.43330        3.65480        1.55390
H          3.18610        2.62430        3.85190
H          1.43620        0.76220        3.94620
H          2.83280        0.51270        2.87950
C          4.48260        4.38020        2.48800
H          4.35660        4.57350        3.57430
H          5.16630        5.15900        2.09250
H          4.98800        3.41010        2.30990
