22
TSA8_9_CHF2_NO2_CBr3
C          2.56030        1.69360        0.16140
C          1.49810        1.41620       -0.90200
C          2.53910        0.52950        1.18120
H          3.54740        1.64400       -0.33600
N          1.83450        1.18620       -2.20450
C          2.38660        3.16420        0.70610
C          1.11430        3.32410        1.52120
C          0.09470        4.08670        1.11540
O          0.31860        1.39540       -0.57370
C          3.59280        3.78670        1.47890
H          2.31240        3.78770       -0.21470
H          1.02510        2.81380        2.47440
H          0.13230        4.62310        0.17310
H         -0.79170        4.17590        1.73550
F          3.60330        0.58230        2.05260
F          1.35240        0.47790        1.89110
H          2.63980       -0.42810        0.62640
O          0.98160        0.97120       -3.01540
O          3.09140        1.19960       -2.59330
Br         3.28830        5.69660        1.69910
Br         3.89240        3.10250        3.27420
Br         5.24960        3.63670        0.47240
