22
TSA8_9_NO2_NH2_OMe
C          2.22110       -1.26910       -1.51920
C          1.50100       -1.10330       -0.19390
N          2.45580        0.03780       -2.10870
H          3.19880       -1.76190       -1.31810
N          2.07300       -1.52490        0.95910
C          1.40430       -2.16110       -2.49940
C          1.08080       -3.52180       -1.90540
C         -0.17860       -3.91810       -1.69260
O          0.39360       -0.58620       -0.16230
O          1.99980       -2.28580       -3.78840
H          0.44230       -1.62890       -2.67270
H          1.88250       -4.19980       -1.63360
H         -0.37430       -4.89520       -1.26350
H         -1.02110       -3.28040       -1.94220
O          3.57190        0.41940       -2.29610
O          1.44440        0.81390       -2.43850
H          1.58130       -1.41180        1.85790
H          3.00530       -1.96380        0.96030
C          3.32440       -2.78400       -3.76040
H          3.58770       -3.11680       -4.78510
H          3.44550       -3.67580       -3.11330
H          4.04390       -1.98570       -3.48530
