15
TSA8_9_CN_H_F
C          2.04330       -1.18000        0.99170
C          2.51760        0.03080        1.73990
C          2.34040       -1.13190       -0.45310
H          0.96550       -0.98360        1.03100
H          2.29370        1.00610        1.30790
C          2.36150       -2.56260        1.62010
C          1.21620       -3.45040        1.22060
C         -0.00040       -3.17140        1.71490
O          2.75920       -0.02620        2.93640
F          3.57190       -3.07370        1.17310
H          2.39350       -2.54260        2.73100
H          1.35460       -4.25750        0.50990
H         -0.12050       -2.35400        2.42980
H         -0.87610       -3.71820        1.40800
N          2.52260       -1.16720       -1.59470
