15
TSA8_9_CN_H_F
C          2.67980       -1.28720        0.88660
C          1.63130       -0.39730        1.58240
C          2.21200       -1.57610       -0.48230
H          3.64150       -0.73990        0.80970
H          1.76680        0.70550        1.61670
C          2.79940       -2.59170        1.71010
C          1.41930       -3.24500        1.79310
C          0.36370       -2.19050        2.20760
O          0.97570       -1.00360        2.68430
F          3.73160       -3.47370        1.19340
H          3.10490       -2.35290        2.75630
H          1.14130       -3.67140        0.79950
H         -0.25490       -2.63590        3.00960
H         -0.32430       -1.94510        1.36250
N          1.82090       -1.81540       -1.54550
