27
TSA8_9_Et_OMe_CBr3
C          2.80450        1.49440        0.68080
C          1.88380        1.89100       -0.45920
C          2.43350        0.02350        1.03910
H          3.82670        1.49750        0.25140
O          2.42050        2.17450       -1.67420
C          2.72310        2.62270        1.78340
C          1.48310        2.46750        2.63980
C          0.48100        3.35230        2.61000
O          0.67460        1.96070       -0.28110
C          3.99270        2.91560        2.65430
H          2.64960        3.57000        1.19850
H          1.40300        1.61050        3.30160
H          0.51850        4.22310        1.96310
H         -0.39060        3.20480        3.23890
C          3.30710       -0.68900        2.05500
H          2.52350       -0.56550        0.09860
H          1.37520       -0.04760        1.37400
H          4.38050       -0.60710        1.78120
H          3.02800       -1.76390        2.08240
H          3.10330       -0.30390        3.06340
C          1.68080        2.58460       -2.76220
H          2.36010        2.74350       -3.62450
H          1.16410        3.54170       -2.53260
H          0.93290        1.80910       -3.03190
Br         3.73060        4.60340        3.58950
Br         4.46740        1.65670        4.04560
Br         5.56500        3.18140        1.54220
