23
TSA8_9_CBr3_Me_CCl3
C          1.29880       -1.06270        1.62310
C          2.70090       -1.08780        2.23030
C          1.33530       -1.16630        0.04350
H          0.96640       -0.00580        1.74990
C          3.68250       -2.21030        2.01660
C          0.20920       -1.84660        2.48780
C         -1.10650       -1.92860        1.74220
C         -2.19610       -1.25750        2.12990
O          3.08810       -0.10850        2.85090
C          0.51730       -3.24740        3.12810
H          0.05930       -1.20270        3.38590
H         -1.17150       -2.56590        0.86540
H         -2.18070       -0.61320        3.00280
H         -3.11780       -1.35410        1.56530
Br        -0.25800       -0.41400       -0.79380
Br         2.75950       -0.04480       -0.67710
Br         1.59120       -2.92490       -0.72410
H          4.05190       -2.59830        2.98660
H          4.55760       -1.82690        1.45120
H          3.24240       -3.04860        1.45170
Cl        -0.90500       -3.81830        4.05650
Cl         0.89840       -4.53730        1.96620
Cl         1.80740       -3.16480        4.35660
