23
TSA8_9_CBr3_Me_CCl3
C          1.32550       -2.22450        1.50730
C          1.89850       -0.79160        1.83830
C          0.94820       -2.31920       -0.01740
H          2.15380       -2.95620        1.63700
C          3.41020       -0.80350        2.07750
C          0.25800       -2.57170        2.61460
C         -0.76450       -1.42960        2.80330
C         -0.10150       -0.05430        2.67180
O          1.27410       -0.16320        2.94980
C         -0.42510       -3.96730        2.65920
H          0.87170       -2.54960        3.54540
H         -1.66680       -1.47330        2.15920
H         -0.58340        0.65290        3.37750
H         -0.25850        0.38480        1.66080
Br        -0.63930       -1.32930       -0.53520
Br         2.38610       -1.63840       -1.13950
Br         0.75750       -4.14660       -0.64350
H          3.64590       -1.40410        2.98220
H          3.77000        0.23480        2.23290
H          3.95020       -1.23570        1.21200
Cl        -1.24780       -4.16770        4.23340
Cl        -1.68790       -4.19210        1.41580
Cl         0.77850       -5.28150        2.55360
