18
TSA8_9_NO2_OH_OH
C          1.56260        1.25370       -1.52250
C          1.13370       -0.19900       -1.42340
N          1.31000        1.91690       -0.24800
H          2.66180        1.27220       -1.69690
O          2.02080       -1.19540       -1.62260
C          0.95010        2.01610       -2.74060
C         -0.56400        2.10260       -2.77480
C         -1.34230        1.06130       -3.08570
O         -0.00880       -0.48180       -1.10010
O          1.47930        3.31860       -2.74270
H          1.28960        1.50290       -3.67180
H         -1.04070        3.06250       -2.59630
H         -0.91920        0.09210       -3.32750
H         -2.41970        1.18090       -3.12480
O          1.82120        1.49830        0.74740
O          0.54470        2.98660       -0.17040
H          2.94090       -1.02360       -1.86040
H          1.35030        3.68510       -3.65730
