18
TSA8_9_NO2_OH_OH
C          1.64520        1.36710       -1.62270
C          1.08650       -0.07040       -1.63290
N          1.43300        1.95810       -0.30560
H          2.74320        1.33500       -1.79950
O          1.52610       -0.80670       -2.73970
C          0.97700        2.15410       -2.77690
C         -0.55110        2.03170       -2.68540
C         -0.92990        0.54740       -2.63170
O         -0.32920       -0.09850       -1.51970
O          1.38190        3.49770       -2.76150
H          1.30710        1.68750       -3.73480
H         -0.94560        2.54040       -1.78240
H         -0.66600        0.03460       -3.58390
H         -2.03250        0.47260       -2.53200
O          1.92300        1.44010        0.65280
O          0.77190        3.08540       -0.14940
H          1.99490       -1.58720       -2.34900
H          1.04610        3.90530       -3.60230
