22
TSA8_9_CF3_CH2F_NH2
C          2.88320        0.84520       -0.81550
C          1.39780        0.81970       -1.24570
C          2.96100        0.82530        0.73380
H          3.37770       -0.09300       -1.15240
C          1.13390        0.29390       -2.66620
C          3.56980        2.04600       -1.52260
C          2.79450        3.34300       -1.26200
C          1.32360        3.13970       -1.64920
O          0.73100        2.04630       -0.96060
N          4.98090        2.18530       -1.15960
H          3.52830        1.85240       -2.61740
H          2.86950        3.64650       -0.19860
H          1.21290        3.02770       -2.74740
H          0.77020        4.06380       -1.38230
F          4.27460        0.76440        1.15920
F          2.35240        1.92690        1.30580
F          2.31820       -0.30780        1.20200
F         -0.22850        0.20160       -2.87920
H          1.57680       -0.71840       -2.77010
H          1.57830        0.94080       -3.44780
H          5.07420        2.55110       -0.18680
H          5.42620        2.88380       -1.79660
