20
TSA8_9_Cl_CH2F_CH2F
C          2.07300        2.23230       -0.64920
C          0.79400        2.20730       -1.45080
Cl         1.88390        1.09070        0.71740
H          2.91790        1.86740       -1.27610
C          0.80040        1.75630       -2.88240
C          2.40030        3.65680       -0.13610
C          3.63980        3.62620        0.73170
C          3.60750        3.98470        2.01980
O         -0.25740        2.55020       -0.92670
C          2.63340        4.63470       -1.30000
H          1.53390        4.02350        0.46010
H          4.58230        3.30160        0.29920
H          2.68500        4.31160        2.48950
H          4.51300        3.94940        2.61590
F         -0.47610        1.80200       -3.41710
H          1.17630        0.71320       -2.93940
H          1.46460        2.41660       -3.47750
F          2.89900        5.90300       -0.81210
H          1.73350        4.69590       -1.94640
H          3.49180        4.30130       -1.92250
