20
TSA8_9_Cl_CH2F_CH2F
C          1.88650        0.15790       -0.16350
C          1.48350        1.38070       -0.55100
Cl         2.11300       -0.26090        1.53110
H          2.06640       -0.62170       -0.89760
C          1.26240        1.68740       -2.00690
C          2.22080        4.96620       -0.63890
C          2.91540        4.01170       -0.00280
C          2.24460        3.08950        0.97780
O          1.24510        2.35550        0.36470
C          2.88140        5.89320       -1.61240
H          1.15610        5.07820       -0.45120
H          3.98080        3.90030       -0.18570
H          1.79620        3.70310        1.78690
H          2.99660        2.41260        1.43580
F         -0.04900        2.07680       -2.20380
H          1.47450        0.80800       -2.65260
H          1.93510        2.51290       -2.31720
F          3.87570        6.61540       -0.97770
H          2.12940        6.59950       -2.02280
H          3.32220        5.31220       -2.44950
