20
TSA8_9_Cl_CH2F_CH2F
C          2.65110        2.38120       -1.13440
C          1.32790        1.73340       -0.60880
Cl         4.05360        1.68950       -0.25700
H          2.81170        2.11340       -2.20190
C          0.33780        1.52120       -1.75600
C          2.54200        3.90820       -0.96470
C          2.32030        4.26390        0.51910
C          1.57530        3.13880        1.25900
O          0.65870        2.49820        0.40030
C          3.70660        4.69780       -1.57810
H          1.62500        4.21490       -1.51500
H          3.26240        4.45450        1.07770
H          1.04560        3.56730        2.13440
H          2.28130        2.38680        1.67620
F         -0.79750        0.88980       -1.28200
H          0.79440        0.88020       -2.53940
H          0.04860        2.49390       -2.20700
F          4.90420        4.41310       -0.94640
H          3.50810        5.78720       -1.48530
H          3.80060        4.45330       -2.65780
