25
TSA8_9_NH2_Et_Me
C          2.15730        1.87670       -0.56140
C          0.99530        1.84500       -1.54170
N          1.85000        1.00620        0.57780
H          3.07120        1.47390       -1.05360
C          1.14010        1.26770       -2.92860
C          2.45780        3.31520       -0.05740
C          3.55180        3.28190        0.98720
C          3.34360        3.70460        2.23890
O         -0.10280        2.24300       -1.17990
C          2.89870        4.24560       -1.19390
H          1.52910        3.73570        0.39100
H          4.53370        2.90380        0.71630
H          2.37660        4.08910        2.54960
H          4.14760        3.66730        2.96630
H          0.98760        1.33530        1.07050
H          1.69770        0.02680        0.24200
C          2.09500        2.07250       -3.80380
H          0.14750        1.25520       -3.43030
H          1.49860        0.21940       -2.84750
H          1.71780        3.10940       -3.92710
H          2.15500        1.60420       -4.80890
H          3.11410        2.09520       -3.36670
H          3.82130        3.86140       -1.68090
H          3.10640        5.26150       -0.79450
H          2.09760        4.34230       -1.95310
