25
TSA8_9_NH2_Et_Me
C          1.83130        0.07950       -0.21300
C          1.40360        1.23450       -0.78500
N          1.98600       -0.11460        1.18440
H          2.01970       -0.78400       -0.84540
C          1.11950        1.23650       -2.27480
C          2.84400        4.74680       -0.86240
C          3.12960        3.74430       -0.02220
C          2.05400        3.04190        0.75740
O          1.15940        2.37900       -0.07760
C          3.92600        5.44770       -1.62320
H          1.81380        5.06470       -0.99980
H          4.16330        3.44090        0.12410
H          1.50060        3.80110        1.34930
H          2.54770        2.36300        1.46950
H          1.63170        0.55400        1.87860
H          2.31640       -1.02750        1.52800
C          1.95720        2.25900       -3.02840
H          0.04470        1.46600       -2.43540
H          1.32010        0.23830       -2.72300
H          1.70180        3.28100       -2.69380
H          1.73030        2.19420       -4.11360
H          3.03990        2.06430       -2.87500
H          4.46120        4.72340       -2.27310
H          4.64610        5.91210       -0.91690
H          3.48260        6.24200       -2.25930
