25
TSA8_9_NH2_Et_Me
C          2.94220        1.92320       -0.80640
C          1.40090        1.63340       -0.78050
N          3.62070        1.23400        0.29600
H          3.39130        1.53230       -1.74610
C          0.86630        1.10590       -2.12310
C          3.15720        3.44870       -0.74280
C          2.46770        4.04300        0.50010
C          1.15050        3.30760        0.80750
O          0.61270        2.75240       -0.37180
C          4.62800        3.85780       -0.82800
H          2.64190        3.87930       -1.62950
H          3.09410        4.02590        1.41860
H          0.43160        4.01920        1.26290
H          1.29280        2.50780        1.56930
H          3.25920        1.52930        1.22790
H          3.47380        0.20340        0.20070
C          0.99560        2.11940       -3.26390
H         -0.20760        0.85140       -1.99530
H          1.40810        0.17510       -2.39580
H          0.44990        3.05490       -3.01890
H          0.56400        1.68970       -4.19170
H          2.05950        2.36230       -3.46410
H          5.07560        3.46320       -1.76510
H          5.19860        3.46300        0.03860
H          4.71110        4.96550       -0.83980
