21
TSA8_9_OMe_CH2F_F
C          1.53700        0.13550        0.02500
C          1.23160       -1.13000        0.34130
O          1.58180        0.50130       -1.27720
H          1.72050        0.87310        0.80410
C          1.15930       -1.55780        1.79200
C         -0.58050       -3.96240       -2.91080
C         -0.62320       -3.00360       -1.98120
C          0.17490       -3.08510       -0.71220
O          1.01780       -1.99540       -0.68670
F         -1.30420       -3.83240       -4.05320
H          0.02990       -4.84910       -2.77180
H         -1.24140       -2.12650       -2.15240
H          0.77640       -4.01840       -0.67750
H         -0.53300       -3.08370        0.13780
C          1.74340        1.80580       -1.67860
H          1.74940        1.84340       -2.78740
H          2.70310        2.21130       -1.29550
H          0.89660        2.42140       -1.30680
F         -0.11110       -1.97830        2.13270
H          1.42810       -0.72210        2.47410
H          1.88280       -2.38190        1.96650
