17
TSA8_9_CN_Cl_NH2
C          2.13300       -1.58410       -0.68810
C          2.83030       -1.61770        0.63510
C          2.66060       -0.48050       -1.51790
H          1.07210       -1.34750       -0.41890
Cl         2.62140       -0.25460        1.73610
C          2.14460       -2.94000       -1.46810
C          0.94400       -2.99070       -2.38050
C         -0.27240       -3.15390       -1.84330
O          3.43810       -2.60130        1.02070
N          3.39640       -3.15910       -2.20560
H          2.02680       -3.78430       -0.75210
H          1.05070       -2.89550       -3.45640
H         -0.38300       -3.27530       -0.76730
H         -1.16010       -3.18200       -2.46190
N          3.07690        0.38350       -2.16290
H          3.45660       -2.52120       -3.03350
H          3.39780       -4.13760       -2.58090
