17
TSA8_9_CN_Cl_NH2
C          2.64050       -1.60390       -0.88140
C          1.48520       -1.51200        0.17130
C          2.34340       -0.65550       -1.97390
H          3.58880       -1.24780       -0.41460
Cl         2.00820       -0.89500        1.76450
C          2.65150       -3.08590       -1.41670
C          1.24740       -3.38370       -1.95510
C          0.21370       -3.12760       -0.84730
O          0.82830       -2.75190        0.36920
N          3.66560       -3.46100       -2.40970
H          2.83590       -3.75060       -0.54360
H          1.03020       -2.72660       -2.83360
H         -0.30500       -4.09340       -0.69580
H         -0.54760       -2.37140       -1.14030
N          2.11310        0.08520       -2.82880
H          3.47900       -3.04760       -3.35020
H          3.56320       -4.50180       -2.54750
