24
TSA8_9_CF3_OMe_CH2F
C          2.24980       -1.23110        1.68900
C          0.94280       -0.84090        2.38060
C          2.03680       -1.18430        0.15500
H          3.04660       -0.49800        1.90670
O          0.80300        0.23470        3.20600
C          2.72620       -2.63060        2.19190
C          4.03750       -3.02950        1.54960
C          4.15560       -4.12950        0.79960
O         -0.04850       -1.52520        2.17440
C          2.91860       -2.65440        3.72050
H          1.94160       -3.38140        1.94410
H          4.91260       -2.40420        1.70360
H          3.30720       -4.78290        0.62070
H          5.11330       -4.38210        0.35670
F          3.22120       -1.41880       -0.51900
F          1.10580       -2.12890       -0.24290
F          1.58290        0.07080       -0.21320
C          1.78080        1.02810        3.77710
H          1.67840        2.06570        3.39800
H          2.81050        0.67520        3.60070
H          1.63000        1.03810        4.87600
F          3.88080       -1.73970        4.11420
H          3.23610       -3.66910        4.04470
H          1.96770       -2.42250        4.24320
