24
TSA8_9_CF3_OMe_CH2F
C          2.93640       -0.98600        2.08160
C          1.41600       -0.95900        1.81440
C          3.68670       -0.61190        0.77820
H          3.18050       -0.18300        2.81070
O          0.65560       -0.92770        3.00080
C          3.27120       -2.36130        2.73240
C          2.72550       -3.51210        1.87640
C          1.23320       -3.27750        1.60120
O          1.00390       -2.02390        0.97040
C          4.74900       -2.57970        3.08590
H          2.72070       -2.38960        3.70050
H          3.27750       -3.59680        0.91870
H          0.64060       -3.36310        2.53900
H          0.87180       -4.08580        0.93170
F          5.04040       -0.47510        1.01340
F          3.49090       -1.54140       -0.22530
F          3.22290        0.61190        0.32630
C          0.32270        0.41310        3.26590
H         -0.03230        0.95690        2.35960
H          1.18350        0.93660        3.73520
H         -0.51820        0.42730        3.98880
F          5.53490       -2.72640        1.95800
H          4.84530       -3.51130        3.68270
H          5.12410       -1.73460        3.70200
