23
TSA8_9_CF3_I_Et
C          2.35390       -1.13160        1.07330
C          1.35010        0.01070        1.04710
C          2.34730       -1.74340       -0.36000
H          3.34490       -0.67480        1.28630
I          1.99420        1.99460        1.38200
C          2.01680       -2.14900        2.23160
C          1.48920       -1.40210        3.44860
C          0.25520       -1.59930        3.92540
O          0.16350       -0.19930        0.84400
C          3.20470       -2.99090        2.78850
H          1.21570       -2.83070        1.86760
H          2.13410       -0.68360        3.94760
H         -0.08460       -1.04650        4.79490
H         -0.42310       -2.30650        3.45800
F          3.29470       -2.71610       -0.55310
F          1.10850       -2.29470       -0.64250
F          2.60130       -0.74480       -1.28600
C          3.95080       -3.91280        1.83690
H          2.78780       -3.64500        3.58790
H          3.95760       -2.32010        3.26030
H          3.24610       -4.58240        1.30030
H          4.65670       -4.53910        2.42280
H          4.58300       -3.32590        1.14650
