23
TSA8_9_CF3_I_Et
C          1.87590        0.07740        0.11520
C          1.44320        0.64510        1.27480
C          1.89700       -1.33760       -0.42570
H          2.29840        0.77670       -0.60080
I          1.66510        2.74460        1.40830
C          2.00590       -3.21430        3.39300
C          1.97900       -1.93810        2.98300
C          0.67150       -1.22300        2.77650
O          0.87910        0.08050        2.38490
C          3.29810       -3.95620        3.60590
H          1.07210       -3.73610        3.58560
H          2.90900       -1.40910        2.79260
H          0.14010       -1.20300        3.75130
H         -0.00760       -1.73460        2.06780
F          3.21040       -1.69170       -0.66900
F          1.33840       -2.29770        0.37300
F          1.21310       -1.34820       -1.62670
C          4.09980       -4.08540        2.31170
H          3.06580       -4.97700        3.97890
H          3.90620       -3.43140        4.37340
H          3.50440       -4.62330        1.54360
H          5.02990       -4.65910        2.50840
H          4.38240       -3.08610        1.91890
