24
TSA8_9_Et_H_OMe
C          1.66470       -0.19160        0.07340
C          1.29410       -1.33040        0.66950
C          1.99430       -0.12920       -1.39350
H          1.72020        0.72220        0.65880
H          1.23470       -2.25390        0.09730
C          2.25930       -3.67870        4.12140
C          1.82900       -3.35340        2.88590
C          0.62820       -2.46440        2.68610
O          0.97200       -1.32570        1.98470
O          3.33830       -4.47370        4.36080
H          1.72610       -3.29470        4.98570
H          2.33930       -3.72760        2.00460
H          0.20920       -2.15350        3.66660
H         -0.16920       -3.01730        2.14190
C          3.43440        0.32130       -1.60530
H          1.30640        0.59580       -1.87900
H          1.85570       -1.11970       -1.87910
H          3.59970        1.32290       -1.15420
H          3.64670        0.38190       -2.69380
H          4.13480       -0.40870       -1.14610
C          4.16210       -5.03280        3.40640
H          4.94990       -5.62830        3.91400
H          4.65160       -4.23460        2.80970
H          3.58100       -5.70740        2.74270
