24
TSA8_9_Et_H_OMe
C          2.06630       -1.12270        1.19500
C          0.51340       -1.06670        1.25110
C          2.47230       -1.05960       -0.30360
H          2.47520       -0.21430        1.68890
H          0.03100       -1.65050        0.43080
C          2.56760       -2.36800        2.00320
C          1.51200       -3.47420        1.91230
C          0.24100       -2.94280        2.62330
O          0.02450       -1.53690        2.48830
O          3.83670       -2.80940        1.56290
H          2.61300       -2.05040        3.07450
H          1.32180       -3.69530        0.83900
H          0.39650       -3.12730        3.70700
H         -0.65460       -3.52090        2.31220
C          3.95320       -0.75280       -0.55690
H          1.91700       -0.21550       -0.77100
H          2.17730       -1.99460       -0.82730
H          4.23380        0.20230       -0.06440
H          4.11740       -0.64220       -1.64960
H          4.63240       -1.55110       -0.21080
C          4.43380       -3.65370        2.52440
H          4.57600       -3.13310        3.49720
H          5.44410       -3.93290        2.16080
H          3.85920       -4.59770        2.64550
