17
TSA8_9_H_CH2F_I
C          1.86850        0.23000       -0.04730
C          1.55910        1.53530       -0.17950
H          2.20810       -0.20680        0.88150
H          1.77230       -0.44910       -0.88910
C          1.06900        2.05290       -1.50300
C          2.81700        4.70580        2.26680
C          3.22860        3.43390        2.27640
C          2.26480        2.30210        2.07440
O          1.65120        2.43770        0.83990
I          4.19050        6.28150        2.55570
H          1.77020        4.94970        2.11100
H          4.27940        3.21230        2.43690
H          1.49240        2.33750        2.87140
H          2.82760        1.35480        2.17290
F         -0.19020        2.60110       -1.34670
H          1.01720        1.25500       -2.27490
H          1.76260        2.84090       -1.86320
