23
TSA8_9_CHF2_Et_Cl
C          1.79310       -0.12090        0.11480
C          1.35930       -1.26750        0.69210
C          1.93290        0.14040       -1.36550
H          2.05350        0.71710        0.75490
C          1.20250       -1.33760        2.19490
C          4.15440       -3.83560        0.23540
C          3.34040       -2.98850       -0.40240
C          1.87400       -3.29410       -0.61390
O          1.01330       -2.36500       -0.03600
Cl         5.85100       -3.43790        0.45250
H          3.78520       -4.77740        0.62860
H          3.74440       -2.05800       -0.78610
H          1.62400       -4.29360       -0.19790
H          1.67880       -3.33720       -1.70490
F          3.25140        0.43410       -1.65730
F          1.51620       -0.91260       -2.15360
H          1.30770        1.02020       -1.62330
C          2.06670       -2.43850        2.79930
H          0.13710       -1.54370        2.43140
H          1.47870       -0.37390        2.67670
H          1.78470       -3.42840        2.38250
H          1.91540       -2.46530        3.89910
H          3.13980       -2.24160        2.59210
