23
TSA8_9_CHF2_Et_Cl
C          2.82860       -0.98110        0.23160
C          1.40860       -1.45450        0.61200
C          2.71250       -0.01360       -0.97190
H          3.25660       -0.37750        1.06240
C          1.02470       -1.59640        2.10070
C          3.72170       -2.22740        0.00330
C          3.05750       -3.19720       -0.96880
C          1.65770       -3.54620       -0.44810
O          0.83550       -2.40220       -0.28240
Cl         5.37920       -1.83210       -0.52960
H          3.83480       -2.76940        0.96270
H          2.99870       -2.77130       -1.98990
H          1.71810       -4.13230        0.48550
H          1.17760       -4.21480       -1.19260
F          3.94540        0.50460       -1.32170
F          2.13350       -0.60450       -2.07940
H          2.06770        0.84170       -0.67570
C          1.84060       -2.58710        2.92880
H         -0.05230       -1.86000        2.16420
H          1.15190       -0.59690        2.56890
H          1.73010       -3.62420        2.56690
H          1.47450       -2.56460        3.97690
H          2.91000       -2.29620        2.94460
