20
TSA8_9_NO2_OMe_H
C          1.80690       -0.00610       -0.21750
C          1.83810       -0.19120        1.11580
N          1.36210       -0.99250       -1.14710
H          2.14520        0.95110       -0.60670
O          2.27750        0.82850        1.89790
C          4.64450       -2.20320        2.68850
C          3.68920       -2.21950        1.75560
C          2.22910       -2.40290        2.10360
O          1.42020       -1.36000        1.67390
H          5.68180       -2.07280        2.39880
H          4.40410       -2.32110        3.74060
H          3.96860       -2.10370        0.71170
H          2.08880       -2.53260        3.19810
H          1.88560       -3.33390        1.60680
O          1.37590       -0.74250       -2.31360
O          0.93310       -2.17160       -0.75000
C          2.33740        0.77970        3.27360
H          2.69010        1.75980        3.65560
H          3.05200       -0.00180        3.60160
H          1.33130        0.57220        3.69620
