20
TSA8_9_CH2F_I_CHF2
C          1.46680       -1.67380       -1.67490
C          1.19170       -1.55490       -0.19150
C          1.50580       -0.26800       -2.30450
H          2.48190       -2.11440       -1.78610
I          2.62900       -2.21000        1.20980
C          0.45820       -2.66460       -2.34040
C         -0.97550       -2.17790       -2.26150
C         -1.91440       -2.84910       -1.58680
O          0.14740       -1.07150        0.21780
C          0.80950       -2.99620       -3.80400
H          0.55750       -3.62320       -1.78030
H         -1.25570       -1.26020       -2.76970
H         -1.68150       -3.77210       -1.06490
H         -2.93140       -2.47180       -1.55340
F          2.44610        0.51350       -1.65510
H          0.51840        0.23270       -2.22660
H          1.80090       -0.31730       -3.36960
F         -0.00790       -4.01730       -4.25710
F          0.64080       -1.90500       -4.63690
H          1.86190       -3.34530       -3.86920
