20
TSA8_9_CH2F_I_CHF2
C          1.85220       -0.07120        0.00590
C          1.12900       -1.19970       -0.06190
C          2.17270        0.78120       -1.18960
H          2.22640        0.25630        0.97080
I          0.77060       -2.25950        1.74990
C         -0.18030       -4.04520       -3.51850
C         -0.48950       -2.91950       -2.85740
C         -0.16350       -2.74100       -1.40340
O          0.64610       -1.63610       -1.25410
C         -0.51170       -4.21340       -4.97110
H          0.31920       -4.86180       -3.00420
H         -0.99290       -2.10800       -3.37680
H          0.35070       -3.64100       -0.99960
H         -1.11140       -2.58550       -0.84480
F          3.54360        0.87300       -1.33130
H          1.75650        1.79770       -1.02860
H          1.74320        0.37560       -2.12960
F         -1.87780       -4.10890       -5.16040
F          0.13340       -3.24480       -5.71820
H         -0.17660       -5.21480       -5.31430
