23
TSA8_9_CCl3_Et_Br
C          1.32600       -0.12350        0.18710
C          1.51090       -0.98990       -0.83530
C          1.83150        1.30050        0.16170
H          0.78430       -0.45080        1.07090
C          0.92360       -2.39430       -0.73220
C          4.05560       -0.74790       -4.98140
C          3.38950       -0.30710       -3.91170
C          2.71450       -1.25910       -2.97240
O          2.19750       -0.53690       -1.92020
Br         4.94010        0.49010       -6.14180
H          4.11880       -1.80950       -5.20030
H          3.35600        0.76030       -3.70950
H          3.49300       -1.94680       -2.59140
H          1.90940       -1.81540       -3.49930
Cl         1.06180        2.21040       -1.16710
Cl         1.42290        2.11800        1.69360
Cl         3.60330        1.35200       -0.03370
C          1.95270       -3.52450       -0.75410
H          0.19000       -2.54970       -1.55060
H          0.37000       -2.49950        0.22740
H          2.44430       -3.61880       -1.73760
H          1.43440       -4.48970       -0.57040
H          2.71370       -3.37280        0.03990
