23
TSA8_9_CCl3_Et_Br
C          2.72410       -0.17320       -0.99610
C          1.41270       -0.98310       -1.15660
C          2.36270        1.31690       -0.66500
H          3.26590       -0.53750       -0.09500
C          1.26180       -2.34860       -0.45750
C          3.61890       -0.48640       -2.23690
C          2.85320       -0.32030       -3.54380
C          1.58250       -1.17490       -3.49120
O          0.74520       -0.82670       -2.40250
Br         5.32990        0.42680       -2.33430
H          3.89540       -1.55920       -2.19130
H          2.61520        0.73980       -3.74770
H          1.82880       -2.25260       -3.47330
H          1.01980       -1.00880       -4.43350
Cl         1.42850        2.16470       -1.92700
Cl         1.36070        1.35300        0.81680
Cl         3.79340        2.30780       -0.27640
C          2.29440       -3.40950       -0.82980
H          0.23880       -2.73690       -0.64780
H          1.35410       -2.17000        0.63520
H          2.24300       -3.68170       -1.89890
H          2.09400       -4.32910       -0.23990
H          3.31680       -3.06350       -0.57360
