16
TSA8_9_NH2_F_Br
C          1.70520       -0.05800        0.14430
C          1.39120       -0.61570        1.33830
N          2.05910       -0.73560       -1.05030
H          1.65400        1.02570        0.08560
F          1.01330        0.24950        2.31710
C          4.38550       -3.45510        2.13880
C          3.60170       -2.72360        1.34030
C          2.13050       -3.00720        1.19540
O          1.40090       -1.93640        1.68570
Br         6.24210       -3.03660        2.32020
H          3.98420       -4.28750        2.70900
H          4.03250       -1.89110        0.79170
H          1.85120       -3.89680        1.79570
H          1.85400       -3.26630        0.16530
H          2.26510       -0.17620       -1.89090
H          2.04110       -1.74780       -1.16640
