17
TSA8_9_Cl_CF3_Cl
C          3.04960       -1.54660        0.26160
C          1.55480       -1.67350        0.45610
Cl         3.42470        0.10960       -0.30640
H          3.52440       -1.66660        1.26020
C          0.99490       -2.00520        1.81270
C          3.69630       -2.62270       -0.65300
C          3.29360       -2.57510       -2.11210
C          2.09660       -2.96860       -2.55570
O          0.79090       -1.46350       -0.47340
Cl         5.47520       -2.43670       -0.56490
H          3.47960       -3.63730       -0.25340
H          4.02260       -2.25060       -2.84970
H          1.33910       -3.35260       -1.88270
H          1.87550       -2.93130       -3.61730
F         -0.38780       -2.05380        1.77150
F          1.47430       -3.23570        2.22290
F          1.38160       -1.03900        2.72330
