17
TSA8_9_Cl_CF3_Cl
C          3.11160       -1.46800        0.01850
C          1.55990       -1.65940        0.09930
Cl         3.48850       -0.11280       -1.09100
H          3.52960       -1.17610        1.00590
C          1.07810       -1.86790        1.53880
C          3.74990       -2.77730       -0.46380
C          3.16820       -3.19710       -1.82390
C          1.70400       -2.74610       -1.96010
O          1.07410       -2.74220       -0.69860
Cl         5.53260       -2.69560       -0.52840
H          3.47980       -3.56280        0.27430
H          3.72600       -2.77910       -2.69010
H          1.17190       -3.42600       -2.65680
H          1.63560       -1.73180       -2.41650
F         -0.30010       -1.98150        1.54910
F          1.62890       -3.01940        2.07260
F          1.43520       -0.78420        2.32100
