20
TSA8_9_Et_Br_Cl
C          1.78100        0.23650       -0.13190
C          1.33580        1.51830       -0.18980
C          1.86860       -0.72380        1.02970
H          2.11950       -0.19110       -1.07230
Br         1.37830        2.34960       -1.91400
C          2.42960        3.14880        3.70620
C          2.11290        2.20390        2.81360
C          0.74640        2.13770        2.17850
O          0.83080        2.30080        0.81170
Cl         4.03210        3.19300        4.42300
H          1.70720        3.90290        4.00430
H          2.86440        1.47160        2.54450
H          0.12160        2.96850        2.57090
H          0.19300        1.21480        2.43440
C          3.30490       -1.21490        1.19410
H          1.22210       -1.59840        0.80450
H          1.53620       -0.31900        1.98900
H          3.65200       -1.71230        0.26380
H          3.35550       -1.94870        2.02610
H          3.98250       -0.36590        1.42430
