20
TSA8_9_Et_Br_Cl
C          2.24250        1.12270        0.78090
C          0.86270        1.63950        0.25040
C          2.10380       -0.38380        1.14130
H          2.98670        1.17580       -0.04390
Br         1.10080        2.62030       -1.40820
C          2.67590        2.07180        1.92090
C          1.62870        2.09060        3.04140
C          0.20690        1.97940        2.46250
O          0.16500        2.49990        1.15250
Cl         4.32330        1.83140        2.56240
H          2.69180        3.09320        1.47990
H          1.76410        1.28220        3.79190
H         -0.49580        2.53270        3.11810
H         -0.16090        0.93010        2.45840
C          3.41640       -1.09020        1.47770
H          1.69510       -0.90010        0.24450
H          1.39310       -0.54940        1.97360
H          4.14840       -0.96280        0.65200
H          3.22130       -2.17550        1.61080
H          3.84590       -0.72380        2.42750
