23
TSA8_9_Me_CBr3_Me
C          2.75200       -1.57010        0.26770
C          1.53200       -1.07320        1.02720
C          2.90520       -0.77060       -1.03910
H          3.65160       -1.35970        0.88740
C          1.67220       -0.44000        2.39550
C          2.69000       -3.11540        0.06300
C          1.53410       -3.54260       -0.81820
C          0.55130       -4.32790       -0.36660
O          0.42400       -1.18180        0.52050
C          3.99570       -3.67160       -0.52100
H          2.57980       -3.57150        1.07330
H          1.49990       -3.20940       -1.85100
H          0.54350       -4.68800        0.65740
H         -0.25890       -4.61560       -1.02870
H          2.03400       -0.92030       -1.71010
H          3.83030       -1.05720       -1.57790
H          2.97980        0.31370       -0.80920
Br         2.78960        1.14130        2.29090
Br        -0.04620        0.09830        3.13070
Br         2.47510       -1.69690        3.63490
H          4.85410       -3.39540        0.12780
H          4.18050       -3.29260       -1.54720
H          3.94410       -4.78070       -0.57030
