23
TSA8_9_Me_CBr3_Me
C          1.95010       -0.06880        0.11300
C          1.57150       -0.81250        1.19830
C          1.91670       -0.39040       -1.35800
H          2.33520        0.92670        0.27490
C          1.68310       -0.24070        2.60870
C          2.89130       -4.73710        0.08230
C          2.43820       -3.49670       -0.14910
C          1.03620       -3.07960        0.21980
O          1.07320       -2.08880        1.17870
C          4.29460       -5.11960       -0.27420
H          2.24780       -5.48240        0.54060
H          3.10520       -2.77010       -0.60110
H          0.49490       -3.94270        0.66230
H          0.42410       -2.77840       -0.64790
H          1.52720       -1.36720       -1.64700
H          2.94810       -0.31630       -1.76060
H          1.28830        0.36830       -1.86870
Br         2.38610        1.57040        2.80200
Br        -0.07260       -0.24940        3.43040
Br         2.83860       -1.39940        3.64890
H          5.01290       -4.47700        0.27840
H          4.45570       -4.99740       -1.36600
H          4.47620       -6.17920        0.00140
