23
TSA8_9_Me_CBr3_Me
C          2.71380       -1.69510        0.35870
C          1.38440       -1.38840        1.13220
C          2.65480       -1.02950       -1.02620
H          3.58510       -1.25440        0.89110
C          1.57170       -0.57250        2.42350
C          2.91500       -3.22970        0.29740
C          1.67320       -3.92520       -0.29080
C          0.38450       -3.23030        0.17860
O          0.61360       -2.55810        1.39810
C          4.19840       -3.67390       -0.41130
H          2.99660       -3.56800        1.35480
H          1.66180       -3.97270       -1.40150
H         -0.42070       -3.98410        0.29530
H          0.01360       -2.51250       -0.59070
H          1.82170       -1.42950       -1.63890
H          3.60530       -1.18060       -1.57670
H          2.50790        0.06530       -0.91130
Br         2.44550        1.12440        2.06600
Br        -0.16160       -0.17230        3.19440
Br         2.60970       -1.55750        3.73700
H          5.08050       -3.19610        0.06500
H          4.17690       -3.40660       -1.48800
H          4.31010       -4.77630       -0.33080
