26
TSA8_9_Et_CBr3_CHF2
C          2.44810       -1.90130       -0.69090
C          1.27190       -2.44990        0.11340
C          2.16890       -0.40490       -0.99690
H          3.34780       -1.93180       -0.03740
C          1.41880       -2.83810        1.57650
C          2.77010       -2.72420       -1.98970
C          1.63160       -2.69760       -2.99230
C          1.76290       -2.14210       -4.20140
O          0.16990       -2.51730       -0.41190
C          3.15890       -4.18570       -1.71240
H          3.67140       -2.26920       -2.45270
H          0.67890       -3.14790       -2.73760
H          0.92620       -2.14760       -4.89210
H          2.69470       -1.68080       -4.51240
C          3.36030        0.33340       -1.61220
H          1.93220        0.11370       -0.04260
H          1.28660       -0.29990       -1.66530
H          4.24360        0.26020       -0.94280
H          3.10140        1.40580       -1.73810
H          3.61910       -0.06630       -2.61220
Br         1.99150       -1.30470        2.61620
Br        -0.26480       -3.45340        2.33210
Br         2.71370       -4.25500        1.83270
F          4.25610       -4.24110       -0.87230
F          2.10790       -4.89480       -1.15780
H          3.43850       -4.67840       -2.66850
