32
TSA8_9_Et_Et_Et
C          2.61420       -0.30130       -2.02030
C          1.37520       -1.18860       -2.14390
C          2.35570        0.70450       -0.86770
H          3.46200       -0.93610       -1.68850
C          1.37170       -2.64040       -1.71940
C          3.01210        0.41960       -3.36320
C          1.90880        1.33770       -3.85980
C          2.07410        2.66180       -3.94800
O          0.31400       -0.69800       -2.49860
C          3.39620       -0.54660       -4.50570
H          3.91510        1.03790       -3.17480
H          0.95660        0.92250       -4.16990
H          1.26480        3.28510       -4.31400
H          3.00710        3.13510       -3.65870
C          3.58280        1.53420       -0.48290
H          2.06150        0.12820        0.03800
H          1.51650        1.38760       -1.12290
H          4.42450        0.86630       -0.20120
H          3.33270        2.17390        0.38940
H          3.90040        2.20350       -1.30610
C          2.30460       -3.52250       -2.53630
H          0.34190       -3.04590       -1.82820
H          1.65350       -2.70510       -0.64650
H          2.04830       -3.46910       -3.61530
H          2.20120       -4.57500       -2.19780
H          3.35530       -3.22810       -2.37460
C          4.73220       -1.25450       -4.26720
H          3.53070        0.04130       -5.44150
H          2.58290       -1.28190       -4.68230
H          5.54670       -0.50520       -4.17140
H          4.96130       -1.91200       -5.13210
H          4.72540       -1.86990       -3.35380
