32
TSA8_9_Et_Et_Et
C          1.61030       -0.13990       -0.12940
C          1.28900       -0.82080       -1.26210
C          1.84280        1.34570        0.00830
H          1.67770       -0.69540        0.80250
C          0.98880       -2.29910       -1.16860
C          3.53050        0.74690       -5.05860
C          2.64640        0.05930       -4.32290
C          2.06030        0.64910       -3.07490
O          1.19490       -0.26470       -2.50410
C          4.15860        0.16160       -6.29370
H          3.81000        1.75520       -4.76270
H          2.35980       -0.94530       -4.62130
H          1.50590        1.57890       -3.32350
H          2.91300        0.87740       -2.40380
C          3.26660        1.62420        0.47860
H          1.12840        1.73550        0.76400
H          1.64360        1.90840       -0.91990
H          3.46060        1.12010        1.44960
H          3.40790        2.71750        0.61110
H          4.00060        1.25950       -0.27100
C          1.94350       -3.10580       -2.04450
H         -0.05310       -2.47520       -1.51140
H          1.07290       -2.67070       -0.12430
H          1.84350       -2.80570       -3.10880
H          1.69990       -4.18600       -1.96340
H          2.99330       -2.94860       -1.71720
C          5.01310       -1.06060       -5.95880
H          4.81440        0.92790       -6.75950
H          3.36680       -0.11510       -7.02250
H          5.81600       -0.78060       -5.24360
H          5.48150       -1.45330       -6.88500
H          4.39430       -1.86730       -5.51000
