32
TSA8_9_Et_Et_Et
C          2.68590       -0.26980       -2.41950
C          1.25880       -0.83190       -2.66610
C          2.75250        0.48490       -1.05710
H          3.40820       -1.09760       -2.33420
C          0.81180       -1.98320       -1.74900
C          3.05460        0.62030       -3.66150
C          1.78190        1.11350       -4.39740
C          0.63580        1.35390       -3.40970
O          0.28480        0.20840       -2.62970
C          3.92420       -0.12690       -4.70640
H          3.63000        1.50860       -3.33820
H          1.40950        0.32580       -5.09160
H         -0.25430        1.66650       -3.99450
H          0.90120        2.19540       -2.73840
C          4.16320        0.94810       -0.67920
H          2.43130       -0.20430       -0.24980
H          2.07510        1.36040       -1.03920
H          4.85560        0.08270       -0.64470
H          4.13350        1.41920        0.32650
H          4.55850        1.70330       -1.38680
C          1.69890       -3.22150       -1.87560
H         -0.21410       -2.27680       -2.05890
H          0.76310       -1.65730       -0.69010
H          1.73640       -3.56000       -2.93310
H          1.27870       -4.04040       -1.25510
H          2.72790       -3.02390       -1.51450
C          5.32070       -0.50840       -4.20460
H          4.07350        0.54250       -5.58310
H          3.39830       -1.04320       -5.05500
H          5.87260        0.39710       -3.87930
H          5.88330       -0.98830       -5.03360
H          5.28710       -1.23400       -3.36910
