26
TSA8_9_Et_CF3_CF3
C          2.01740        1.25280       -1.72260
C          0.46040        1.12390       -1.50370
C          2.68970        1.21330       -0.32030
H          2.37510        0.34490       -2.25780
C         -0.15280       -0.03810       -2.29300
C          2.24760        2.49720       -2.63420
C          1.64100        3.76080       -1.99490
C          0.36010        3.42530       -1.21910
O         -0.27440        2.31240       -1.80120
C          3.65410        2.76970       -3.19680
H          1.63420        2.27070       -3.53570
H          2.33050        4.29310       -1.30450
H         -0.31480        4.30540       -1.22980
H          0.56780        3.22510       -0.14470
C          4.19250        0.93220       -0.30640
H          2.24330        0.34980        0.22210
H          2.47180        2.12510        0.27040
H          4.42000        0.00400       -0.87100
H          4.52120        0.79140        0.74530
H          4.79200        1.75770       -0.70540
F         -1.50110       -0.13090       -2.00200
F          0.00210        0.16930       -3.65210
F          0.45730       -1.22830       -1.93880
F          4.19820        1.60420       -3.70660
F          3.55410        3.69060       -4.22560
F          4.49910        3.30750       -2.25000
