23
TSA8_9_Me_CBr3_CF3
C          1.70400       -0.07590       -0.10490
C          1.45970       -0.56850       -1.35240
C          1.83840        1.37380        0.27950
H          1.76720       -0.74750        0.73830
C          1.21760       -2.05330       -1.59310
C          3.01830        1.39750       -5.21580
C          3.04750        0.75380       -4.04330
C          2.28640        1.21090       -2.83490
O          1.40790        0.20470       -2.47340
C          3.81360        0.87830       -6.37840
H          2.42200        2.29770       -5.33380
H          3.65000       -0.14310       -3.94260
H          1.71900        2.14810       -3.02470
H          3.05430        1.39240       -2.05580
H          1.62530        2.08400       -0.53810
H          2.85370        1.55690        0.68710
H          1.09390        1.59240        1.07350
Br         1.38810       -3.23640       -0.05290
Br        -0.57730       -2.27460       -2.28840
Br         2.45850       -2.70260       -2.93290
F          3.39540       -0.40090       -6.69950
F          3.62970        1.70280       -7.47440
F          5.15780        0.85180       -6.05290
