20
TSA8_9_CBr3_Cl_CCl3
C          1.64950       -2.26230        0.20150
C          3.06930       -2.77630        0.37540
C          1.57290       -1.17330       -0.93900
H          1.44800       -1.64420        1.10720
Cl         3.97690       -3.50740       -0.94870
C          0.55010       -3.41450        0.31640
C         -0.79520       -2.93470       -0.18960
C         -1.84420       -2.74340        0.61770
O          3.64910       -2.59300        1.43430
C          0.82200       -4.85560       -0.25100
H          0.46470       -3.60660        1.41160
H         -0.91700       -2.74970       -1.25210
H         -1.77380       -2.92110        1.68480
H         -2.78690       -2.40440        0.20100
Br         0.00140       -0.02980       -0.78160
Br         3.04520        0.09480       -0.76810
Br         1.63150       -1.83560       -2.75880
Cl        -0.58120       -5.91690        0.08740
Cl         1.08660       -4.92670       -2.00850
Cl         2.17770       -5.67210        0.58070
