20
TSA8_9_CBr3_Cl_CCl3
C          1.46830       -0.34810       -0.30650
C          2.15930       -1.50990       -0.23300
C          1.94970        0.91110       -0.99290
H          0.49750       -0.30240        0.17190
Cl         3.77260       -1.69120       -0.91880
C         -0.25040       -5.37670        0.83270
C          0.27150       -4.43860        0.02890
C          0.32440       -2.99080        0.42110
O          1.64990       -2.60080        0.40080
C         -0.25460       -6.83440        0.44850
H         -0.67400       -5.08550        1.79100
H          0.68800       -4.71970       -0.93440
H         -0.09330       -2.83370        1.43870
H         -0.28420       -2.41030       -0.30690
Br         0.62810        2.31320       -0.77250
Br         3.60900        1.56820       -0.22630
Br         2.17000        0.61440       -2.89770
Cl        -1.05330       -7.79640        1.71800
Cl        -1.13000       -7.08610       -1.08470
Cl         1.42040       -7.42200        0.27140
