21
TSA8_9_CH2F_NH2_NH2
C          2.80740       -0.06480        1.45660
C          1.40810        0.37250        1.85920
C          2.74510       -0.70160        0.05290
H          3.41650        0.86330        1.37920
N          1.14920        1.67570        2.12730
C          3.52190       -0.95170        2.53460
C          3.00780       -2.37810        2.67010
C          1.82660       -2.70320        3.20130
O          0.49490       -0.43680        1.90740
N          4.96430       -0.98440        2.26360
H          3.41130       -0.44270        3.51920
H          3.65390       -3.19410        2.35690
H          1.14630       -1.95820        3.58850
H          1.54330       -3.74830        3.27880
F          4.00360       -0.95060       -0.45810
H          2.23570       -0.00520       -0.64760
H          2.16580       -1.64940        0.07920
H          0.19790        1.97690        2.38520
H          1.89250        2.38800        2.08150
H          5.18490       -1.58700        1.44020
H          5.46100       -1.39210        3.08970
