18
TSA8_9_CN_CF3_H
C          2.43620       -1.01500       -1.42280
C          1.69440       -2.09920       -0.63840
C          2.07650        0.39500       -1.12180
H          3.50090       -1.11280       -1.12250
C          1.55160       -2.12360        0.85540
C          2.30250       -1.22210       -2.95850
C          1.00370       -0.63190       -3.47850
C         -0.20850       -1.04820       -3.09670
O          1.28340       -3.08660       -1.23220
H          3.13090       -0.67580       -3.46090
H          2.41440       -2.29190       -3.24470
H          1.06970        0.21690       -4.15260
H         -0.34940       -1.87300       -2.41600
H         -1.09370       -0.53890       -3.45650
N          1.77970        1.49520       -0.96240
F          0.21470       -2.29760        1.16610
F          2.26580       -3.19880        1.35320
F          2.00880       -0.96250        1.44720
