23
TSA8_9_Et_CHF2_Cl
C          2.48980        0.44330       -1.38480
C          1.21450        0.00520       -2.08410
C          2.12950        0.96820        0.02550
H          3.12430       -0.45750       -1.22270
C          0.98620       -1.44370       -2.41780
C          3.32290        1.42000       -2.27730
C          2.61100        2.68870       -2.70410
C          2.28460        3.67510       -1.86330
O          0.35320        0.82950       -2.35660
Cl         3.83790        0.55130       -3.75600
H          4.26620        1.69820       -1.76430
H          2.37450        2.82860       -3.75580
H          1.78670        4.56180       -2.24270
H          2.51790        3.63180       -0.80810
C          3.35520        1.30640        0.87660
H          1.57170        0.16700        0.56010
H          1.45340        1.84390       -0.03140
H          4.01140        0.41560        0.97660
H          3.02480        1.61730        1.89020
H          3.93760        2.14070        0.43810
F         -0.24620       -1.61720       -3.02320
F          1.97400       -1.89420       -3.27310
H          1.01300       -2.04320       -1.48420
