23
TSA8_9_Et_CHF2_Cl
C          1.76580       -0.03050       -0.19920
C          1.33490        0.24910       -1.44950
C          1.89740        0.99010        0.90420
H          2.01530       -1.05610        0.05890
C          1.16740       -0.86230       -2.45430
C          3.95420        2.05520       -3.49150
C          2.62710        2.19600       -3.41770
C          1.92820        2.50250       -2.12250
O          1.00490        1.51580       -1.82110
Cl         4.72080        1.69650       -5.03010
H          4.57750        2.15740       -2.60870
H          2.02620        2.08740       -4.31600
H          1.38720        3.46270       -2.25180
H          2.65270        2.63040       -1.29090
C          3.33990        1.07000        1.38850
H          1.24620        0.67930        1.74860
H          1.56340        1.99810        0.58670
H          3.67660        0.07990        1.76370
H          3.41390        1.80700        2.21580
H          4.00600        1.39330        0.56060
F         -0.15010       -0.90960       -2.86870
F          1.97830       -0.63870       -3.54980
H          1.43480       -1.85110       -2.02360
