23
TSA8_9_Et_CHF2_Cl
C          2.55850        0.49290       -1.01470
C          1.13620        0.36680       -1.61550
C          2.42200        1.09650        0.41120
H          2.98840       -0.51830       -0.83980
C          0.94970       -0.70290       -2.70010
C          3.48070        1.30430       -1.97040
C          2.70080        2.27310       -2.87520
C          1.37870        2.69170       -2.23440
O          0.49850        1.60200       -1.95600
Cl         4.44560        0.21330       -3.01030
H          4.22670        1.87280       -1.38680
H          2.43610        1.79540       -3.83920
H          0.86820        3.36760       -2.95220
H          1.55870        3.29320       -1.32400
C          3.72990        1.09670        1.20870
H          1.70620        0.46190        0.98040
H          2.01330        2.12230        0.40440
H          4.14100        0.06750        1.27710
H          3.52890        1.46380        2.23740
H          4.49090        1.76540        0.76200
F         -0.39920       -0.85660       -2.95900
F          1.59320       -0.38250       -3.87690
H          1.34470       -1.67200       -2.33000
