19
TSA8_9_NO2_CBr3_I
C          2.57890       -1.35110        0.81320
C          1.42850       -0.66270        1.53850
N          2.46110       -1.06810       -0.61010
H          3.53090       -0.94450        1.20350
C          1.67250        0.34730        2.63900
C          2.55430       -2.88250        1.14010
C          1.63340       -3.59760        0.20800
C          0.35120       -3.77720        0.49400
O          0.27540       -0.95340        1.25010
I          4.42280       -3.93450        1.10980
H          2.25760       -3.01610        2.20910
H          2.00720       -3.85220       -0.78180
H         -0.04470       -3.46390        1.45290
H         -0.30260       -4.19230       -0.26110
O          3.33380       -0.50860       -1.18820
O          1.34080       -1.34160       -1.27090
Br         2.61310        1.89200        1.94720
Br         0.00070        0.96650        3.42040
Br         2.72190       -0.45090        4.06160
