19
TSA8_9_NO2_CBr3_I
C          2.69400       -1.51550        0.85590
C          1.31420       -1.04790        1.41840
N          2.79580       -1.14210       -0.54480
H          3.52960       -1.04270        1.42070
C          1.37220        0.16070        2.36600
C          2.83980       -3.03730        1.05490
C          1.59870       -3.80520        0.58230
C          0.31190       -3.04570        0.95630
O          0.57020       -2.11530        1.98990
I          4.64430       -3.84330        0.22900
H          2.89920       -3.20370        2.15350
H          1.58840       -4.03100       -0.50510
H         -0.46490       -3.77110        1.27350
H         -0.11140       -2.52480        0.06420
O          3.67380       -0.41830       -0.90640
O          1.91740       -1.57640       -1.42290
Br         2.24300        1.67660        1.52330
Br        -0.42890        0.70720        2.82820
Br         2.31440       -0.28500        4.00480
