26
TSA8_9_CHF2_CHF2_Et
C          2.91560        1.16900       -1.42890
C          1.37750        1.14180       -1.59600
C          3.28710        0.72750        0.00650
H          3.34330        0.36050       -2.05380
C          0.85600        0.85080       -3.01290
C          3.53100        2.55690       -1.80850
C          2.45420        3.66010       -1.84390
C          1.36410        3.42210       -0.80070
O          0.65900        2.18940       -0.94470
C          4.28010        2.56600       -3.16470
H          4.27360        2.84060       -1.03030
H          1.95290        3.71500       -2.82810
H          0.62990        4.24830       -0.90190
H          1.78580        3.50640        0.21880
F          4.66180        0.62410        0.12940
F          2.82040        1.59100        0.97700
H          2.85250       -0.27590        0.20460
F         -0.50280        0.60640       -2.95570
F          1.08350        1.88730       -3.89210
H          1.35500       -0.05900       -3.40490
C          5.50610        1.64990       -3.20550
H          4.64300        3.60030       -3.35630
H          3.59120        2.28430       -3.98880
H          6.22320        1.92950       -2.40570
H          6.01010        1.76260       -4.18890
H          5.23450        0.58230       -3.09420
