23
TSA8_9_H_Et_CCl3
C          2.31140        2.06450        1.07740
C          1.01430        2.53890        0.47920
H          2.19960        0.96970        1.24130
H          3.14350        2.20900        0.35460
C          1.00070        3.15260       -0.90160
C          2.66690        2.73300        2.43230
C          3.87800        2.00840        2.98820
C          3.83120        1.32720        4.13770
O         -0.02210        2.40260        1.11430
C          2.95730        4.26450        2.35400
H          1.80910        2.58420        3.12690
H          4.81390        2.03740        2.43740
H          2.91740        1.26890        4.72130
H          4.71770        0.81940        4.50330
C         -0.39840        3.56680       -1.35750
H          1.40700        2.41380       -1.62520
H          1.65710        4.04860       -0.90550
H         -1.07070        2.68260       -1.39010
H         -0.34340        4.00780       -2.37520
H         -0.82110        4.32490       -0.66400
Cl         3.42490        4.88390        3.96470
Cl         4.28500        4.64050        1.21620
Cl         1.52410        5.21180        1.86940
