23
TSA8_9_H_Et_CCl3
C          1.81110        0.16180       -0.01760
C          1.48390        1.41350        0.33810
H          1.89490       -0.61750        0.73360
H          1.97890       -0.10430       -1.05790
C          1.35060        2.50470       -0.69490
C          2.94580        4.04600        3.46230
C          2.94220        3.17270        2.44450
C          2.29640        1.81360        2.56710
O          1.27100        1.70400        1.64650
C          3.55900        5.41780        3.33550
H          2.48670        3.76740        4.40800
H          3.40230        3.44230        1.49990
H          1.86920        1.67790        3.58160
H          3.05390        1.01570        2.41250
C         -0.06820        3.05730       -0.74760
H          1.61800        2.13610       -1.70990
H          2.05190        3.32420       -0.43560
H         -0.77030        2.26960       -1.08510
H         -0.11050        3.89470       -1.47540
H         -0.38500        3.43190        0.24860
Cl         3.39650        6.30010        4.87520
Cl         5.29190        5.30050        2.93360
Cl         2.72210        6.34980        2.06540
