23
TSA8_9_H_Et_CCl3
C          2.96900        2.72300        0.82670
C          1.57270        2.06150        0.59580
H          3.73070        1.92820        0.97760
H          3.27620        3.29560       -0.07380
C          0.67620        2.96910       -0.26310
C          2.90430        3.58530        2.10070
C          2.53700        2.67420        3.29970
C          1.76230        1.42370        2.84920
O          0.87290        1.74260        1.80430
C          4.18180        4.42160        2.36490
H          2.06560        4.30190        1.96240
H          3.41800        2.31100        3.87060
H          1.20460        1.00600        3.71250
H          2.45980        0.62150        2.51330
C         -0.65170        2.29230       -0.59300
H          1.19460        3.19260       -1.21990
H          0.47490        3.92580        0.26430
H         -0.47330        1.34070       -1.13740
H         -1.25970        2.96330       -1.23590
H         -1.22590        2.08170        0.33390
Cl         3.98390        5.40330        3.84330
Cl         5.63260        3.39450        2.55930
Cl         4.48060        5.55420        1.01710
