19
TSA8_9_CH2F_NO2_F
C          1.89230       -0.08300       -0.08640
C          1.52430       -1.07300       -0.95650
C          1.92700        1.41400       -0.24810
H          2.20650       -0.38150        0.90850
N          1.56410       -2.42830       -0.49730
C          3.06660        0.40890       -4.68780
C          2.56690        0.52190       -3.45290
C          1.13910        0.15340       -3.13450
O          1.10290       -0.90440       -2.25020
F          4.36170        0.74040       -4.92910
H          2.45500        0.04920       -5.50960
H          3.21760        0.87840       -2.66240
H          0.62640       -0.17850       -4.06250
H          0.53700        1.00530       -2.77020
F          3.21500        1.86080       -0.02210
H          1.26090        1.85920        0.52040
H          1.59960        1.81200       -1.20930
O          1.24530       -3.31150       -1.23450
O          1.95490       -2.72940        0.72460
