22
TSA8_9_NO2_Me_CCl3
C          2.55440        1.85690        0.61930
C          1.63340        1.41820       -0.50200
N          2.73250        0.76380        1.56270
H          3.53820        2.08110        0.15020
C          2.14080        1.36040       -1.91240
C          2.05550        3.18290        1.29030
C          0.70330        3.01480        1.96490
C         -0.38630        3.66480        1.54360
O          0.47590        1.10320       -0.26740
C          3.07660        3.80920        2.28820
H          1.95280        3.91940        0.46000
H          0.60700        2.35860        2.82290
H         -0.34770        4.33800        0.69320
H         -1.33240        3.52240        2.05580
O          3.81460        0.28380        1.71810
O          1.70290        0.24250        2.19650
H          2.48330        2.36870       -2.22650
H          1.34230        1.02080       -2.60600
H          2.99230        0.65050       -1.97200
Cl         2.47720        5.39220        2.86270
Cl         3.36900        2.79400        3.73040
Cl         4.64820        4.12100        1.49740
