23
TSA8_9_Et_Me_Cl
C          1.81960       -0.00490        0.20360
C          1.40360       -0.52570        1.39030
C          1.88650       -0.65480       -1.15460
H          2.11960        1.04050        0.19140
C          1.34420        0.38470        2.58780
C          3.43360       -4.03850        2.47860
C          2.99950       -3.10220        1.62810
C          1.55650       -3.01310        1.20970
O          1.00830       -1.81280        1.63070
Cl         5.12630       -4.09930        2.94130
H          2.75230       -4.77250        2.89830
H          3.70340       -2.37970        1.22670
H          0.96680       -3.82960        1.67970
H          1.46770       -3.18080        0.13080
C          3.32060       -0.67040       -1.67060
H          1.26230       -0.05220       -1.84870
H          1.47350       -1.66470       -1.19150
H          3.72590        0.36250       -1.71880
H          3.34570       -1.10760       -2.69100
H          3.96390       -1.28330       -1.00400
H          2.00520       -0.01660        3.38390
H          0.30220        0.41980        2.96890
H          1.66570        1.42390        2.36050
