19
TSA8_9_OH_OMe_H
C          2.98900       -0.91150       -0.35810
C          1.67560       -1.48380        0.25540
O          2.67410       -0.01500       -1.39000
H          3.60140       -0.38570        0.41050
O          1.54030       -1.26210        1.64720
C          3.80340       -2.07290       -0.93580
C          2.96900       -2.88540       -1.93850
C          1.48350       -2.91890       -1.53380
O          1.35150       -2.81790       -0.13280
H          4.75540       -1.73610       -1.39910
H          4.06420       -2.75140       -0.09580
H          3.03280       -2.48940       -2.97500
H          1.01990       -3.85650       -1.90260
H          0.92500       -2.08700       -2.02760
H          2.31300        0.80150       -0.95520
C          2.29500       -2.20110        2.38130
H          2.27380       -1.90230        3.44940
H          3.36450       -2.20770        2.08130
H          1.84400       -3.21460        2.31640
