22
TSA8_9_Me_NO2_CBr3
C          1.88680       -0.01890       -0.14390
C          1.51700       -0.53870       -1.35440
C          1.77030        1.37500        0.41460
H          2.33640       -0.69520        0.57620
N          1.73280       -1.93560       -1.58560
C          2.33150        2.83820       -3.98190
C          2.02770        2.21540       -2.83080
C          0.71980        1.48540       -2.64350
O          0.93700        0.14680       -2.39140
C          3.63600        3.56810       -4.17060
H          1.62020        2.82140       -4.80300
H          2.74330        2.23810       -2.01640
H          0.12260        1.55200       -3.57790
H          0.07800        1.93510       -1.86490
H          1.31270        2.13340       -0.22250
H          2.78610        1.73620        0.67840
H          1.16390        1.33110        1.34310
O          1.41510       -2.41690       -2.63090
O          2.27170       -2.70980       -0.66610
Br         3.70790        4.34500       -5.94500
Br         3.80930        5.00140       -2.87420
Br         5.13260        2.34870       -3.98010
