22
TSA8_9_Me_NO2_CBr3
C          2.50730        0.83610       -1.58890
C          1.28880       -0.14450       -1.66360
C          2.43240        1.59750       -0.25980
H          3.44890        0.24580       -1.56190
N          1.72410       -1.52650       -1.70680
C          2.51500        1.73180       -2.86560
C          1.14260        2.41430       -3.05720
C         -0.00530        1.48420       -2.63800
O          0.40290        0.13850       -2.74370
C          3.69910        2.72240       -3.06060
H          2.60840        0.99900       -3.69950
H          1.02370        3.37790       -2.51830
H         -0.88820        1.67420       -3.28210
H         -0.33900        1.70550       -1.59630
H          1.53330        2.24560       -0.20990
H          3.33980        2.20940       -0.10370
H          2.39130        0.87420        0.58270
O          1.41310       -2.23600       -2.61590
O          2.43220       -2.01990       -0.71410
Br         3.63390        3.45510       -4.86000
Br         3.69490        4.24820       -1.85160
Br         5.40830        1.81460       -2.89690
