23
TSA8_9_Me_CF3_CF3
C          1.92420       -0.09770        0.13750
C          1.50820       -1.00060        1.07590
C          2.02030       -0.21720       -1.35940
H          2.23690        0.88360        0.47830
C          1.48910       -0.59750        2.53590
C          3.41820       -3.94760        0.22800
C          2.55460       -3.40350       -0.64210
C          1.13130       -3.11570       -0.24410
O          1.08750       -2.28490        0.85760
C          4.83950       -4.23280       -0.15610
H          3.08910       -4.18620        1.23640
H          2.88150       -3.16700       -1.65060
H          0.65580       -4.07900        0.03640
H          0.51890       -2.70960       -1.07160
H          1.69710       -1.16000       -1.80150
H          3.07430       -0.04950       -1.66350
H          1.39420        0.57780       -1.81520
F          0.20100       -0.72150        3.02170
F          2.31590       -1.44920        3.24500
F          1.91420        0.70310        2.75070
F          5.47080       -3.05820       -0.52290
F          5.50850       -4.78690        0.91960
F          4.87190       -5.12210       -1.21460
