27
TSA8_9_Et_CH2F_OMe
C          2.63410        0.84530       -1.34440
C          1.39560        0.51740       -2.15760
C          2.22670        1.06280        0.13240
H          3.29660       -0.05040       -1.35330
C          1.25820       -0.82660       -2.81280
C          3.45010        1.99480       -2.01830
C          2.69680        3.30600       -2.17430
C          2.34300        4.08940       -1.15120
O          0.50180        1.34380       -2.27610
O          3.82180        1.53220       -3.30990
H          4.35630        2.17430       -1.39450
H          2.45740        3.64700       -3.17800
H          1.81910        5.02000       -1.34320
H          2.57990        3.83860       -0.12650
C          3.42150        1.25000        1.07010
H          1.68240        0.15530        0.47650
H          1.52440        1.91360        0.23520
H          4.10130        0.37400        1.00520
H          3.05770        1.33790        2.11540
H          3.98970        2.17020        0.83010
F          0.05910       -0.91990       -3.49750
H          1.29370       -1.62120       -2.03830
H          2.09400       -0.97720       -3.52760
C          5.05300        2.09460       -3.71310
H          5.28540        1.73040       -4.73470
H          5.88360        1.76180       -3.05220
H          4.99370        3.20390       -3.76580
