18
TSA8_9_Cl_Cl_OMe
C          1.93640       -0.06840       -0.27670
C          1.34770        0.08800       -1.48320
Cl         2.77050        1.16210        0.66550
H          1.88900       -1.04560        0.19420
Cl         0.55180       -1.31610       -2.17770
C          3.90060        1.66580       -3.51570
C          3.48110        2.17220       -2.34110
C          2.01640        2.41050       -2.08690
O          1.30100        1.23520       -2.22210
O          5.20750        1.41800       -3.80660
H          3.16570        1.43400       -4.28050
H          4.18630        2.41920       -1.55580
H          1.64680        3.13310       -2.84470
H          1.83680        2.86930       -1.09460
C          6.27660        1.61970       -2.95820
H          7.21120        1.32220       -3.47650
H          6.16440        0.99630       -2.04440
H          6.35070        2.69290       -2.68140
