19
TSA8_9_NH2_CH2F_I
C          1.86960       -0.15280       -0.16880
C          1.46290       -0.30440       -1.46290
N          2.32610        1.03980        0.45350
H          1.83520       -1.02610        0.47640
C          0.98730       -1.66620       -1.89790
C          4.20770        2.24800       -3.56620
C          3.47000        1.85070       -2.52420
C          1.96280        1.91450       -2.54600
O          1.42790        0.64700       -2.44620
I          6.31310        2.12100       -3.49520
H          3.74380        2.63660       -4.46790
H          3.97590        1.46350       -1.64700
H          1.62270        2.33960       -3.51430
H          1.54560        2.58780       -1.77510
H          2.39110        1.95090       -0.00040
H          2.59800        1.00050        1.44650
F         -0.31840       -1.57820       -2.34410
H          1.03150       -2.42210       -1.08550
H          1.62880       -2.02250       -2.73200
