17
TSA8_9_Cl_Cl_CHF2
C          1.97390        0.53560       -2.19840
C          0.71890       -0.11540       -2.71890
Cl         1.69860        0.98170       -0.48640
H          2.80550       -0.20170       -2.22570
Cl         0.75390       -1.77770       -3.28480
C          2.36640        1.77890       -3.03640
C          3.60710        2.42510       -2.45720
C          3.60170        3.68010       -1.99650
O         -0.33270        0.50540       -2.75300
C          2.62970        1.41540       -4.51040
H          1.51890        2.50150       -3.00850
H          4.53010        1.85380       -2.41260
H          2.70070        4.28560       -2.02150
H          4.50980        4.11110       -1.58760
F          2.94740        2.55430       -5.23000
F          3.67160        0.50940       -4.61580
H          1.72260        0.96660       -4.96620
