21
TSA8_9_OMe_I_CBr3
C          0.55650        0.82620       -1.39450
C          1.34340       -0.42090       -1.05500
O          1.38930        1.96070       -1.23070
H         -0.33820        0.88430       -0.73190
I          0.69470       -1.69930        0.49380
C          0.03300        0.75260       -2.86230
C         -0.82720       -0.49200       -3.01050
C         -0.49800       -1.48870       -3.83800
O          2.36310       -0.69600       -1.66950
C         -0.78160        2.00410       -3.31820
H          0.91440        0.67590       -3.53910
H         -1.73640       -0.58190       -2.42300
H          0.40300       -1.44430       -4.44190
H         -1.13650       -2.36270       -3.91360
C          1.52140        2.29640        0.13560
H          2.03330        3.27800        0.20420
H          2.15490        1.55340        0.66620
H          0.53570        2.42250        0.63650
Br        -1.41480        1.76850       -5.14390
Br        -2.33620        2.33970       -2.19600
Br         0.28780        3.62800       -3.35990
