19
TSA8_9_OH_CN_CBr3
C          2.65710       -1.11990       -0.15480
C          2.06160       -0.90080        1.22790
O          1.70100       -0.69490       -1.09070
H          3.53930       -0.44250       -0.24060
C          2.55320        0.13230        2.10930
C          3.09070       -2.59570       -0.50910
C          2.28050       -3.66380        0.21010
C          0.97960       -3.85800       -0.01560
O          1.02150       -1.45850        1.53920
C          4.61360       -2.87990       -0.38620
H          2.92340       -2.73120       -1.60090
H          2.77480       -4.31550        0.92700
H          0.45270       -4.64000        0.52300
H          0.44070       -3.25080       -0.73340
H          2.20630       -0.34740       -1.87550
N          2.93080        0.97520        2.80360
Br         5.00080       -4.66220       -1.08350
Br         5.64710       -1.66680       -1.50560
Br         5.28300       -2.77410        1.43010
