19
TSA8_9_OH_CN_CBr3
C          1.77420       -0.02110        0.14090
C          1.49150       -0.66670        1.29020
O          1.92620       -0.65550       -1.03520
H          1.89820        1.06030        0.15730
C          1.44080        0.12000        2.49770
C          3.50070       -3.53050       -0.73350
C          2.81230       -3.49220        0.41700
C          1.39020       -3.01980        0.47250
O          1.26190       -2.00830        1.40790
C          4.91690       -4.03680       -0.86870
H          3.01270       -3.19660       -1.64470
H          3.24980       -3.82810        1.34970
H          0.78740       -3.88350        0.82070
H          0.96360       -2.73830       -0.51300
H          2.26050       -0.17220       -1.80270
N          1.40370        0.76160        3.46000
Br         4.88620       -5.53850       -2.08690
Br         6.01310       -2.63840       -1.63450
Br         5.76490       -4.62720        0.78470
