19
TSA8_9_OH_CN_CBr3
C          2.82980       -1.23690        0.05820
C          2.15790       -1.39630        1.44260
O          1.93910       -0.51770       -0.76180
H          3.77280       -0.65250        0.15650
C          1.96810       -0.10990        2.12910
C          3.09560       -2.65660       -0.55950
C          2.30050       -3.73840        0.20180
C          0.90240       -3.20820        0.52520
O          0.89080       -2.03260        1.33390
C          4.58940       -3.06730       -0.68280
H          2.71500       -2.63270       -1.60450
H          2.78280       -3.97190        1.17690
H          0.35360       -4.00790        1.06250
H          0.37420       -2.99890       -0.42950
H          2.41500       -0.32100       -1.61070
N          1.80820        0.89100        2.68870
Br         4.71710       -4.76400       -1.63050
Br         5.59550       -1.77890       -1.73200
Br         5.48510       -3.26720        1.03320
