17
TSA8_9_F_CHF2_Br
C          2.03530        0.17220       -0.27610
C          1.53310        1.15370       -1.05870
F          2.53430        0.39620        0.96620
H          2.04170       -0.85490       -0.62920
C          0.98040        0.80760       -2.41400
C          4.27540        4.25940        0.08160
C          3.58870        3.11700        0.18950
C          2.09150        3.10270        0.37190
O          1.48110        2.46960       -0.69490
Br         6.17150        4.22770       -0.15980
H          3.77380        5.22130        0.12460
H          4.12590        2.17580        0.13830
H          1.70640        4.14420        0.41250
H          1.80910        2.62210        1.33110
F         -0.34880        1.18160       -2.47840
F          1.68930        1.49300       -3.38300
H          1.05120       -0.28020       -2.63080
