24
TSA8_9_CBr3_Et_CN
C          1.59710       -0.03670        0.02320
C          1.44770       -0.92590        1.18050
C          1.63400       -0.13610       -1.48020
H          1.48130        1.01980        0.28770
C          1.90190       -0.24200        2.48090
C          1.80990       -5.22280        0.89320
C          1.68290       -4.03370        0.28940
C          0.47640       -3.10820        0.49510
O          0.64400       -2.07190        1.40940
C          3.01830       -5.98830        0.68790
H          1.03860       -5.60920        1.55110
H          2.47930       -3.77980       -0.39650
H         -0.29810       -3.74640        0.92870
H          0.02530       -2.75780       -0.44650
Br         0.54580        1.07910       -2.52120
Br         3.45910        0.51440       -1.70900
Br         1.49940       -1.83580       -2.39840
C          1.62520       -1.09190        3.72870
H          1.34400        0.70410        2.59770
H          2.98600        0.05020        2.44960
H          0.53240       -1.26730        3.77770
H          1.93890       -0.55300        4.64490
H          2.12570       -2.08530        3.70990
N          3.99600       -6.58040        0.50520
