24
TSA8_9_Et_CBr3_OH
C          1.92750       -1.52070       -1.15240
C          1.40120       -1.25750        0.26080
C          1.93280       -0.23790       -2.03440
H          2.99140       -1.83550       -1.07560
C          1.61130       -2.20750        1.42670
C          1.12710       -2.66900       -1.83440
C         -0.34140       -2.33150       -1.98830
C         -1.29780       -3.06890       -1.41520
O          0.77730       -0.22800        0.48080
O          1.67630       -2.93520       -3.09890
H          1.23440       -3.58090       -1.20970
H         -0.63430       -1.47440       -2.58560
H         -1.05370       -3.93910       -0.81340
H         -2.34100       -2.80260       -1.54800
C          2.89260        0.83400       -1.50670
H          0.91280        0.19340       -2.11470
H          2.27950       -0.49650       -3.05770
H          2.60240        1.18240       -0.49540
H          2.88050        1.70910       -2.19030
H          3.92800        0.43380       -1.46550
Br         2.48340       -1.24230        2.86450
Br        -0.10560       -2.83280        2.07050
Br         2.72700       -3.75860        1.05540
H          1.33860       -3.82600       -3.38000
