18
TSA8_9_CH2F_Br_CN
C          2.09350        1.95840        0.19220
C          1.27240        1.83650       -1.09380
C          2.01260        0.68450        1.11310
H          3.13600        2.03420       -0.17920
Br         1.61330        0.47600       -2.38910
C          1.74290        3.28950        0.96200
C          0.78740        3.04310        2.10390
C         -0.47350        2.68040        1.88820
O          0.44840        2.68800       -1.39790
C          2.92510        4.00140        1.47810
H          1.31540        4.05970        0.28860
H          1.15380        3.10800        3.12770
H         -0.85920        2.60720        0.87880
H         -1.11580        2.45400        2.72950
F          3.03720       -0.20540        0.85280
H          1.02940        0.16360        1.03320
H          2.13030        0.94420        2.18790
N          3.82970        4.61790        1.84320
