18
TSA8_9_CH2F_Br_CN
C          1.55910        0.04800       -0.02840
C          1.27010        1.22480       -0.84870
C          1.67700       -0.14080        1.43560
H          1.49310       -0.87800       -0.57670
Br         1.39520        0.92470       -2.74240
C          1.30780        4.95730        1.72060
C          1.50960        3.66800        1.43130
C          0.45480        2.86210        0.73010
O          0.92640        2.54530       -0.53100
C          2.41380        5.76950        2.15500
H          0.34280        5.42090        1.54350
H          2.48150        3.21960        1.61510
H         -0.45260        3.45480        0.57620
H          0.09210        1.98660        1.30380
F          3.00850       -0.46350        1.48060
H          1.13330       -1.00730        1.86760
H          1.50700        0.72480        2.09340
N          3.32080        6.39770        2.50270
