18
TSA8_9_CH2F_Br_CN
C          2.21000        1.97450        0.35210
C          0.93480        1.69770       -0.50410
C          2.26800        0.93960        1.49940
H          3.10230        1.79390       -0.28670
Br         1.39480        1.46190       -2.37680
C          2.15220        3.45830        0.80400
C          0.86020        3.72500        1.59230
C         -0.31810        2.95360        0.96920
O         -0.06810        2.70300       -0.39660
C          3.32890        3.98860        1.50510
H          2.07860        4.05780       -0.13090
H          0.92220        3.45130        2.67110
H         -1.24810        3.54560        1.08700
H         -0.49840        1.98950        1.50090
F          3.57260        0.73300        1.90920
H          1.88260       -0.03930        1.13440
H          1.64480        1.22390        2.37100
N          4.23560        4.44810        2.05840
