26
TSA8_9_Et_CF3_CH2F
C          2.58270        1.37980        0.52630
C          1.40220        1.59820       -0.40750
C          2.51820       -0.10730        0.98690
H          3.50310        1.51720       -0.08410
C          1.63200        1.92620       -1.85760
C          2.57210        2.50880        1.61480
C          1.55140        2.25340        2.70190
C          0.49910        3.05450        2.89390
O          0.25910        1.50620        0.01860
C          3.94840        2.84520        2.22540
H          2.31630        3.44940        1.07170
H          1.67730        1.39320        3.35250
H          0.33340        3.92620        2.26850
H         -0.20910        2.83630        3.68650
C          3.67590       -0.62210        1.83040
H          2.51010       -0.72920        0.06380
H          1.56950       -0.30980        1.53080
H          4.64700       -0.41450        1.33330
H          3.56940       -1.72070        1.95460
H          3.64040       -0.20130        2.84840
F          0.42690        2.08530       -2.51900
F          2.35690        3.09950       -1.95830
F          2.34020        0.90080       -2.45710
F          4.46080        1.86210        3.03890
H          3.85140        3.76330        2.84460
H          4.67810        3.06440        1.41710
