26
TSA8_9_Et_CF3_CH2F
C          1.90420        0.19310       -0.13000
C          1.46380        1.44010       -0.48690
C          1.94140       -0.49050        1.21740
H          2.26720       -0.45530       -0.92020
C          1.51470        1.85240       -1.94430
C          2.74990        3.96610        2.73500
C          2.35920        2.80810        2.18110
C          0.94700        2.59520        1.69860
O          0.94370        2.40530        0.33190
C          4.16530        4.17130        3.18170
H          2.04310        4.78210        2.85790
H          3.08250        2.01030        2.06030
H          0.34390        3.50450        1.90350
H          0.41870        1.78120        2.22550
C          3.35260       -0.98170        1.52600
H          1.27180       -1.37600        1.16770
H          1.60710        0.11830        2.05840
H          3.70070       -1.67970        0.73380
H          3.35380       -1.52450        2.49500
H          4.05860       -0.12870        1.59240
F          0.22740        2.09470       -2.38720
F          2.24970        3.01880       -2.05300
F          2.08960        0.89790       -2.76620
F          4.49280        3.24950        4.15940
H          4.28140        5.19500        3.59550
H          4.85400        4.05510        2.31750
