26
TSA8_9_Et_CF3_CH2F
C          2.53370        1.52270        0.72550
C          1.17440        1.80060       -0.02280
C          2.43290        0.13080        1.40750
H          3.34050        1.43760       -0.03640
C          1.36870        2.08360       -1.51610
C          2.82330        2.75210        1.64020
C          1.64380        3.02430        2.59590
C          0.30620        2.66580        1.93750
O          0.39760        2.85310        0.54580
C          4.16130        2.80360        2.38920
H          2.85850        3.60600        0.92600
H          1.70240        2.47520        3.56050
H         -0.49680        3.30160        2.36300
H          0.00860        1.61560        2.16380
C          3.77820       -0.53530        1.71340
H          1.94840       -0.56210        0.68340
H          1.79390        0.16720        2.31320
H          4.37290       -0.63670        0.78090
H          3.59410       -1.55290        2.11880
H          4.38410        0.00270        2.45220
F          0.13490        2.24960       -2.11780
F          2.11500        3.23550       -1.69180
F          2.01540        1.02130       -2.12170
F          4.17230        1.96790        3.48880
H          4.31220        3.83460        2.77520
H          5.00240        2.56610        1.70410
