20
TSA8_9_Br_CBr3_Me
C          2.00660        0.14040       -2.32220
C          0.82400       -0.76030       -2.61270
Br         1.68060        1.00680       -0.60660
H          2.92640       -0.47520       -2.21420
C          0.97380       -2.26860       -2.66220
C          2.22690        1.20780       -3.42590
C          3.42100        2.06860       -3.07830
C          3.31460        3.38720       -2.88640
O         -0.27670       -0.25300       -2.77880
C          2.46950        0.58040       -4.80440
H          1.31060        1.83700       -3.49600
H          4.39730        1.60120       -2.98140
H          2.35820        3.89320       -2.97290
H          4.19510        3.97070       -2.63800
Br         1.60690       -2.92140       -0.95000
Br        -0.71670       -3.15320       -3.03970
Br         2.23460       -2.81080       -4.03080
H          3.37420       -0.06440       -4.78960
H          2.61480        1.37850       -5.56390
H          1.59470       -0.02600       -5.11880
