20
TSA8_9_Br_CBr3_Me
C          2.71820       -0.19130       -2.80580
C          1.39110       -0.15710       -1.97460
Br         4.16270        0.48960       -1.68820
H          2.99790       -1.23240       -3.07310
C          0.66770       -1.51310       -1.88140
C          2.53500        0.63960       -4.09150
C          2.08640        2.07320       -3.74930
C          1.16890        2.07970       -2.51590
O          0.48280        0.85040       -2.41910
C          3.76330        0.63570       -5.00520
H          1.70260        0.16550       -4.65660
H          2.92660        2.77460       -3.55260
H          0.45120        2.92240       -2.58970
H          1.75640        2.26300       -1.58530
Br         1.80510       -2.85210       -1.05450
Br        -0.90530       -1.33400       -0.76170
Br         0.10130       -2.14950       -3.62660
H          4.03070       -0.40740       -5.27710
H          4.63360        1.11140       -4.50640
H          3.54140        1.19580       -5.93840
