22
TSA8_9_NH2_Et_F
C          2.87880        0.63630       -0.92470
C          1.40250        0.68750       -1.44740
N          2.91290        0.69230        0.53890
H          3.37200       -0.31560       -1.22110
C          1.02390       -0.51180       -2.33020
C          3.66640        1.80120       -1.54020
C          2.97550        3.14570       -1.27280
C          1.44400        2.99600       -1.31200
O          1.07900        1.90150       -2.12390
F          4.97810        1.82510       -1.10120
H          3.66900        1.64760       -2.64150
H          3.25680        3.60230       -0.29960
H          0.99400        3.93310       -1.70010
H          1.02240        2.86520       -0.28900
H          2.44100        1.54820        0.90380
H          2.41650       -0.14240        0.92560
C          1.79280       -0.54590       -3.65300
H         -0.06260       -0.45140       -2.55430
H          1.20610       -1.45420       -1.77040
H          1.60380        0.37950       -4.23670
H          1.45670       -1.41700       -4.25330
H          2.88380       -0.64710       -3.47870
