22
TSA8_9_H_Et_NO2
C          2.10440        0.78970       -1.87770
C          1.02240       -0.07810       -2.46540
H          1.66320        1.32210       -1.00910
H          2.94430        0.16400       -1.50180
C          1.20230       -1.57550       -2.53600
C          2.64150        1.80180       -2.91390
C          3.62220        2.76680       -2.28360
C          3.25850        3.60210       -1.30370
O         -0.00700        0.44620       -2.86790
N          3.27700        1.09950       -4.01540
H          1.79170        2.40430       -3.30740
H          4.64750        2.80480       -2.64130
H          2.24170        3.61390       -0.92320
H          3.98150        4.29030       -0.87880
C         -0.01860       -2.29390       -3.11280
H          1.38830       -1.96430       -1.51210
H          2.08710       -1.80030       -3.16930
H         -0.90940       -2.10620       -2.47510
H          0.17020       -3.38750       -3.14290
H         -0.22590       -1.93960       -4.14510
O          4.22630        0.39790       -3.82480
O          2.80700        1.23190       -5.23740
