22
TSA8_9_H_Et_NO2
C          1.88890       -0.12880       -0.12970
C          1.63060       -0.17950       -1.45180
H          2.15090        0.78370        0.38790
H          1.82780       -1.02440        0.48040
C          1.25150       -1.49470       -2.08780
C          2.88000        2.52910       -4.38380
C          3.22630        2.49160       -3.08510
C          2.21620        2.16770       -2.02380
O          1.68810        0.91100       -2.27070
N          3.81680        2.82830       -5.41300
H          1.84960        2.32310       -4.66310
H          4.24940        2.69540       -2.78180
H          1.39940        2.91940       -2.05630
H          2.71870        2.23870       -1.04130
C         -0.13280       -1.41610       -2.72400
H          1.25110       -2.32280       -1.34520
H          1.99960       -1.73690       -2.87260
H         -0.89940       -1.19940       -1.95130
H         -0.37690       -2.38770       -3.20270
H         -0.16120       -0.62250       -3.50120
O          4.96150        3.05550       -5.15890
O          3.41680        2.84720       -6.66560
