18
TSA8_9_NH2_NH2_I
C          1.82240       -0.00310        0.19000
C          1.52960       -0.07010        1.51970
N          2.18040       -1.07580       -0.67020
H          1.76200        0.97360       -0.28290
N          1.16340        1.14200        2.16540
C          4.40890       -2.85650        2.98770
C          3.59770       -2.33250        2.06240
C          2.09750       -2.43860        2.16950
O          1.54700       -1.18200        2.31760
I          6.50200       -2.65190        2.81620
H          4.01090       -3.38510        3.84890
H          4.03440       -1.80320        1.22250
H          1.82810       -3.02310        3.07470
H          1.63940       -2.99160        1.32990
H          2.36160       -0.86770       -1.66290
H          2.25190       -2.05310       -0.38910
H          0.93990        1.13850        3.17160
H          1.12890        2.03850        1.65870
