20
TSA8_9_OMe_Cl_NO2
C          0.61770       -1.58070       -0.11110
C          1.42440       -0.70150        0.81970
O          1.42440       -2.02480       -1.19000
H         -0.27290       -1.02250       -0.48660
Cl         0.91630        0.94870        1.13640
C          0.08260       -2.81700        0.64870
C         -0.84590       -2.39450        1.76760
C         -0.58450       -2.66260        3.05010
O          2.43680       -1.12970        1.35170
N         -0.62860       -3.70160       -0.25710
H          0.95510       -3.37030        1.06800
H         -1.75400       -1.85160        1.52030
H          0.31300       -3.19890        3.34180
H         -1.27600       -2.33910        3.82120
C          1.65380       -0.97600       -2.11000
H          2.05850       -1.41470       -3.04480
H          2.41330       -0.26790       -1.71410
H          0.71920       -0.44430       -2.39670
O         -1.60130       -3.32310       -0.83940
O         -0.20070       -4.93160       -0.44200
