20
TSA8_9_OMe_Cl_NO2
C          1.51180        0.13570       -0.11680
C          1.15280       -0.35520        1.07060
O          1.67230       -0.70600       -1.16490
H          1.64070        1.20770       -0.24580
Cl         0.88970        0.74840        2.42280
C         -0.75940       -4.56030        1.52560
C         -0.74550       -3.22820        1.34860
C          0.18040       -2.32970        2.11550
O          0.98520       -1.69440        1.19500
N         -1.60970       -5.41440        0.76950
H         -0.09440       -5.00700        2.26050
H         -1.40200       -2.76770        0.61590
H          0.81590       -2.90920        2.81920
H         -0.42830       -1.60800        2.70140
C          1.86620       -0.26070       -2.45060
H          1.96150       -1.13740       -3.12450
H          2.78690        0.35200       -2.51340
H          0.98700        0.33920       -2.77560
O         -2.32470       -4.97840       -0.08250
O         -1.57320       -6.71210        0.98000
