17
TSA8_9_F_CBr3_F
C          1.98450       -1.31550       -1.61150
C          0.82060       -2.20450       -1.23990
F          1.56980        0.00060       -1.51170
H          2.82250       -1.47270       -0.89770
C          0.88990       -3.13270       -0.04610
C          2.48440       -1.62380       -3.03720
C          3.66880       -0.77400       -3.42790
C          3.59260        0.55390       -3.56590
O         -0.19890       -2.15150       -1.91310
F          2.86530       -2.95320       -3.10290
H          1.66800       -1.46090       -3.77440
H          4.61980       -1.26110       -3.62430
H          2.66380        1.08930       -3.40290
H          4.47220        1.11840       -3.85810
Br         1.20330       -2.10940        1.57090
Br        -0.76190       -4.13100        0.19650
Br         2.32690       -4.41550       -0.26400
