25
TSA8_9_NO2_Et_Me
C          2.93090        1.54260        0.10960
C          1.55050        1.50030       -0.51960
N          3.15800        0.33990        0.89790
H          3.67610        1.56070       -0.71750
C          1.37900        1.46980       -2.01830
C          3.15100        2.84850        0.92970
C          2.24210        2.96330        2.13770
C          1.34250        3.94370        2.26070
O          0.55650        1.46820        0.19140
C          4.60870        2.96190        1.39060
H          2.96190        3.70290        0.23980
H          2.32440        2.24000        2.94190
H          1.22100        4.69790        1.49010
H          0.71630        3.99320        3.14600
O          4.04040       -0.40740        0.59940
O          2.36470        0.02650        1.90020
C          1.93080        2.72980       -2.68320
H          0.29830        1.39080       -2.26880
H          1.89690        0.57560       -2.42610
H          1.40820        3.62950       -2.29480
H          1.76890        2.66880       -3.78020
H          3.02030        2.83680       -2.50240
H          5.29060        2.93410        0.51380
H          4.87460        2.13050        2.07770
H          4.76750        3.92650        1.91910
