25
TSA8_9_NH2_Et_CH2F
C          2.81730        0.59940       -1.30040
C          1.61740       -0.33250       -1.26270
N          2.93620        1.33200       -0.03540
H          3.73240       -0.02250       -1.41260
C          1.79040       -1.82740       -1.36430
C          2.76280        1.55770       -2.52520
C          1.60490        2.53400       -2.45050
C          0.62740        2.55050       -3.36150
O          0.49310        0.12750       -1.12420
C          4.07620        2.33950       -2.68580
H          2.66000        0.92240       -3.43470
H          1.56470        3.25170       -1.63670
H          0.62250        1.85630       -4.19550
H         -0.18130        3.26930       -3.27240
H          3.08500        0.64950        0.74330
H          2.06040        1.86460        0.16920
C          2.40770       -2.24230       -2.69880
H          0.80030       -2.32470       -1.27010
H          2.43640       -2.17650       -0.53060
H          1.76230       -1.91200       -3.54020
H          2.50100       -3.34830       -2.73370
H          3.42050       -1.80760       -2.82610
F          4.30700        3.17010       -1.60270
H          4.03430        2.96040       -3.60660
H          4.92830        1.63420       -2.78850
