25
TSA8_9_NH2_Et_CH2F
C          2.81270        0.64970       -1.43840
C          1.48480       -0.16460       -1.58930
N          2.76090        1.47260       -0.22730
H          3.68510       -0.03200       -1.33360
C          1.67520       -1.68750       -1.55270
C          3.01930        1.50760       -2.70640
C          1.77820        2.37380       -2.99340
C          0.48480        1.60580       -2.66680
O          0.71360        0.21370       -2.72600
C          4.31010        2.33630       -2.69630
H          3.10260        0.78830       -3.55240
H          1.75830        3.34040       -2.44380
H         -0.30820        1.89960       -3.38460
H          0.09530        1.88610       -1.65970
H          2.67280        0.84850        0.60750
H          1.93890        2.11580       -0.24180
C          2.45870       -2.21990       -2.75450
H          0.67170       -2.16440       -1.54480
H          2.19750       -1.97030       -0.61390
H          1.93910       -1.96450       -3.70180
H          2.53920       -3.32470       -2.68110
H          3.48540       -1.80080       -2.78180
F          4.29400        3.27930       -1.68360
H          4.42560        2.85990       -3.66960
H          5.18600        1.66790       -2.55580
