20
TSA8_9_H_CCl3_CH2F
C          2.16570        1.31840        1.49550
C          1.13450        2.37920        1.18090
H          1.70840        0.33310        1.25680
H          3.06140        1.44440        0.84780
C          1.37280        3.41260        0.09920
C          2.58910        1.31580        2.97970
C          3.53040        0.15790        3.21910
C          3.23450       -0.83130        4.06770
O          0.07750        2.37050        1.79590
C          3.27910        2.62460        3.38860
H          1.67650        1.19300        3.60660
H          4.47600        0.12660        2.68430
H          2.29970       -0.83850        4.62030
H          3.93380       -1.64810        4.21360
Cl         2.81160        4.39560        0.46890
Cl         1.62280        2.59670       -1.46520
Cl        -0.01990        4.51940       -0.07430
F          3.63260        2.57940        4.72560
H          2.59220        3.48440        3.24390
H          4.19420        2.79030        2.77910
