20
TSA8_9_H_CCl3_CH2F
C          3.08920        1.63770        1.64480
C          1.62210        1.34140        1.18450
H          3.66950        0.69090        1.59260
H          3.59090        2.37010        0.97800
C          1.01660        2.41990        0.26360
C          3.08340        2.10990        3.10630
C          2.42630        1.03360        3.99720
C          1.35890        0.24710        3.21890
O          0.73350        1.08820        2.27520
C          4.48040        2.48360        3.61310
H          2.45140        3.02090        3.15840
H          3.14500        0.28870        4.40390
H          0.61160       -0.16870        3.92550
H          1.81530       -0.62960        2.70020
Cl         0.90150        4.00620        1.07170
Cl         1.98490        2.59350       -1.22480
Cl        -0.62350        1.92500       -0.23040
F          5.33140        1.39290        3.56470
H          4.41700        2.84820        4.66070
H          4.90340        3.29690        2.98590
