23
TSA8_9_CBr3_Et_I
C          2.63180       -1.73090       -0.18200
C          1.11070       -2.11230       -0.33060
C          2.84470       -0.19510       -0.44470
H          2.94490       -1.89860        0.87300
C          0.43740       -2.38240        1.02530
C          3.45730       -2.74840       -1.03100
C          2.92240       -2.90780       -2.45750
C          1.38640       -2.88970       -2.47130
O          0.89010       -3.22300       -1.19380
I          5.60180       -2.68490       -1.01880
H          3.26270       -3.73410       -0.55150
H          3.32690       -2.18890       -3.19920
H          1.02050       -3.61350       -3.22800
H          0.98820       -1.90180       -2.79340
Br         1.67340        0.87010        0.68380
Br         4.62300        0.41850        0.02950
Br         2.50440        0.38630       -2.26510
C         -1.06640       -2.58840        0.86930
H          0.59830       -1.52670        1.71140
H          0.88740       -3.28780        1.48720
H         -1.53280       -1.68210        0.42760
H         -1.52010       -2.77440        1.86560
H         -1.27830       -3.46320        0.21890
