18
TSA8_9_CN_Br_Me
C          2.98370       -0.19490        1.55690
C          2.01280        1.03880        1.55730
C          2.46620       -1.20230        0.57670
H          3.88350        0.23910        1.08650
Br         1.44760        1.95100        0.00010
C          3.13580       -0.75680        3.02840
C          1.94540       -1.66140        3.22530
C          0.74020       -1.19630        3.51690
O          1.67830        1.54830        2.63520
C          4.35120       -1.55340        3.61250
H          3.15250        0.12210        3.71050
H          2.04080       -2.69540        2.90000
H          0.59070       -0.15980        3.76500
H         -0.09890       -1.86710        3.44770
N          2.05730       -2.04010       -0.11540
H          5.34180       -1.06940        3.47350
H          4.40170       -2.62020        3.30930
H          4.21090       -1.58640        4.72570
