18
TSA8_9_CN_Br_Me
C          1.62900        0.11000       -0.00050
C          1.60180        1.05980        0.96940
C          1.75680       -1.32060        0.17960
H          1.47370        0.41150       -1.02400
Br         1.24260        2.86340        0.44870
C          3.23050       -1.27740        4.45110
C          2.72230       -1.07200        3.23320
C          1.46420       -0.28310        3.02150
O          1.75530        0.85400        2.30620
C          4.51020       -2.03180        4.62010
H          2.72970       -0.88010        5.32860
H          3.24440       -1.46910        2.36910
H          1.01720        0.03250        3.98920
H          0.68490       -0.87730        2.50460
N          1.85530       -2.47040        0.28270
H          5.32270       -1.50080        4.07980
H          4.41040       -3.06080        4.21390
H          4.76990       -2.08500        5.69670
