15
TSA8_9_CN_Cl_Cl
C          1.66010       -0.05420        0.05920
C          1.81910       -1.28310        0.59430
C          1.74700        0.25540       -1.34810
H          1.42030        0.77870        0.70850
Cl         1.61410       -1.47590        2.32860
C          2.54060       -3.90260       -3.16960
C          2.26680       -2.81240       -2.45100
C          1.41860       -2.86500       -1.21360
O          2.12310       -2.39690       -0.12410
Cl         3.50280       -3.76680       -4.63180
H          2.16240       -4.87560       -2.87340
H          2.65410       -1.85870       -2.78580
H          1.10860       -3.90840       -0.98600
H          0.49600       -2.27030       -1.38370
N          1.80930        0.53760       -2.46910
