21
TSA8_9_Me_NO2_NO2
C          2.75260       -1.43540        0.12590
C          1.47630       -1.29210        0.94800
C          2.75790       -0.36430       -0.98070
H          3.62870       -1.23310        0.77760
N          1.51310       -0.97060        2.27310
C          2.91270       -2.90120       -0.38720
C          1.86300       -3.28840       -1.41010
C          0.98110       -4.26820       -1.19210
O          0.39520       -1.46560        0.39980
N          4.23600       -3.13330       -0.94300
H          2.81170       -3.55540        0.51030
H          1.82710       -2.76040       -2.35840
H          0.97840       -4.82780       -0.26230
H          0.24960       -4.51550       -1.95470
H          1.90340       -0.49840       -1.67680
H          3.70070       -0.37680       -1.55980
H          2.67030        0.64410       -0.52230
O          0.49640       -0.86290        2.89160
O          2.65830       -0.77390        2.89070
O          4.58880       -2.58530       -1.94340
O          5.04210       -3.99890       -0.36660
