18
TSA8_9_OH_Me_Cl
C          2.93500        1.07790       -0.05110
C          1.43330        1.41230       -0.34660
O          3.03630        0.29240        1.10880
H          3.39530        0.51570       -0.89730
C          1.18340        1.51310       -1.85080
C          3.68430        2.39660        0.16300
C          3.06980        3.17460        1.34030
C          1.57590        2.84370        1.50770
O          0.97160        2.62740        0.25260
Cl         5.43400        2.14700        0.41480
H          3.55890        3.00670       -0.75740
H          3.56050        2.95060        2.31290
H          1.07310        3.67850        2.03840
H          1.43180        1.94470        2.14970
H          2.67890       -0.60370        0.87530
H          1.77370        2.34260       -2.29410
H          0.10490        1.70100       -2.03530
H          1.45890        0.55950       -2.34810
