17
TSA8_9_Br_Br_CH2F
C          1.83530        0.07990       -0.18980
C          1.44430        1.02500       -1.05580
Br         2.12790        0.43290        1.67140
H          1.97370       -0.93980       -0.53410
Br         1.11960        0.54700       -2.88000
C          2.37120        4.06100       -2.77100
C          3.00720        3.51330       -1.72270
C          2.27260        3.20750       -0.44590
O          1.24380        2.31010       -0.67080
C          3.05480        4.38780       -4.06980
H          1.31070        4.28470       -2.69280
H          4.06750        3.28340       -1.77450
H          1.84560        4.15120       -0.04570
H          2.98190        2.80470        0.30660
F          4.39900        4.05640       -4.05110
H          2.95680        5.47530       -4.26760
H          2.55950        3.82820       -4.89020
