17
TSA8_9_Br_Br_CH2F
C          2.30940        1.63510       -1.92080
C          1.12680        1.55530       -0.90920
Br         3.95500        1.01850       -1.06810
H          2.13360        0.92060       -2.75390
Br        -0.49370        1.04210       -1.84820
C          2.39600        3.08030       -2.44360
C          2.62580        4.05490       -1.27170
C          2.00320        3.52180        0.03140
O          0.83260        2.78230       -0.23510
C          3.41310        3.28890       -3.57480
H          1.39400        3.31190       -2.86970
H          3.69890        4.25680       -1.06260
H          1.77190        4.37720        0.69900
H          2.72020        2.88760        0.59740
F          4.70790        3.05620       -3.14740
H          3.34760        4.33390       -3.94580
H          3.18280        2.60560       -4.41950
