20
TSA8_9_CCl3_H_Me
C          1.36970        0.82270        2.53910
C          1.07570        1.57020        1.22250
C          1.47050       -0.72360        2.27490
H          2.38200        1.12680        2.89090
H          1.28070        2.66280        1.29760
C          0.34670        1.37990        3.58410
C         -1.08680        1.24970        3.06710
C         -1.17840        1.90150        1.68120
O         -0.24850        1.33360        0.77300
C          0.47700        0.84560        5.01010
H          0.55310        2.47310        3.66330
H         -1.40130        0.18650        3.02740
H         -1.02690        3.00460        1.75610
H         -2.20410        1.74910        1.28880
Cl         1.91790       -1.65010        3.72900
Cl         0.00970       -1.48130        1.57200
Cl         2.79550       -1.01420        1.11200
H          0.18770       -0.22020        5.08110
H         -0.20310        1.41400        5.68110
H          1.51640        0.98630        5.37530
