22
TSA8_9_CN_OMe_CHF2
C          2.90990        1.27780       -0.63430
C          1.76580        0.91340       -1.56570
C          2.47880        0.89500        0.73540
H          3.77170        0.64690       -0.93060
O          1.94950       -0.06890       -2.47980
C          3.24600        2.81790       -0.79060
C          2.40210        3.58190        0.19520
C          1.18370        4.02090       -0.08130
O          0.69680        1.50170       -1.51420
C          4.71050        3.32720       -0.65270
H          3.00520        3.07530       -1.85250
H          2.75540        3.64450        1.22280
H          0.76550        3.91080       -1.07190
H          0.59370        4.44580        0.72060
N          2.09290        0.63580        1.79360
C          1.61510        0.07450       -3.80810
H          1.66550       -0.91440       -4.30890
H          2.36570        0.74390       -4.27860
H          0.59870        0.50320       -3.94600
F          5.17340        3.29040        0.65000
F          5.58490        2.63720       -1.47260
H          4.72690        4.39560       -0.98090
