22
TSA8_9_CN_OMe_CHF2
C          1.61330        0.00580       -0.07450
C          1.41250        0.61720       -1.27430
C          1.80140        0.63930        1.20850
H          1.58030       -1.07860       -0.05130
O          1.38330       -0.18910       -2.36060
C          3.69120        4.22220       -0.94040
C          2.98980        3.17650       -0.47360
C          1.50300        3.04530       -0.68050
O          1.25190        1.96190       -1.48880
C          5.17410        4.36120       -0.70530
H          3.19250        5.00720       -1.49690
H          3.51030        2.39710        0.07160
H          1.09770        3.95500       -1.19080
H          0.96950        2.96010        0.28840
N          1.95170        1.16430        2.22890
C          1.57020        0.29560       -3.63710
H          1.64280       -0.55320       -4.34120
H          2.53380        0.85260       -3.67520
H          0.72900        0.95360       -3.94260
F          5.44990        4.36510        0.65170
F          5.86240        3.32660       -1.30980
H          5.53380        5.32100       -1.13650
