17
TSA8_9_OH_Cl_NO2
C          1.91880       -0.00870        0.15530
C          1.19530       -1.05320       -0.25770
O          2.40620        0.88070       -0.73410
H          2.11380        0.13350        1.21470
Cl         0.57870       -2.18230        0.95380
C         -0.90790       -1.64930       -4.38430
C         -0.84570       -1.38980       -3.06620
C          0.09750       -2.12790       -2.16010
O          0.96520       -1.21800       -1.58770
N         -1.79030       -0.95060       -5.25560
H         -0.26530       -2.41610       -4.80860
H         -1.48250       -0.62780       -2.62690
H          0.69170       -2.87510       -2.72860
H         -0.50220       -2.67180       -1.40160
H          2.91970        1.64400       -0.43630
O         -2.50980       -0.08910       -4.84580
O         -1.80590       -1.25010       -6.53680
