26
TSA8_9_Et_Br_Et
C          2.50620        1.09160        0.89280
C          1.29820        1.26920       -0.01890
C          2.42220       -0.40980        1.32460
H          3.40260        1.26030        0.25770
Br         1.54120        1.70150       -1.86660
C          2.48920        2.18690        2.03990
C          1.89570        3.48530        1.50040
C          0.77340        4.01980        1.99190
O          0.16300        1.14250        0.41440
C          3.86720        2.65060        2.60990
H          1.83420        1.82130        2.86240
H          2.40190        3.99600        0.68450
H          0.38820        4.94470        1.57510
H          0.23260        3.54580        2.80460
C          3.58050       -1.04060        2.07580
H          2.33650       -1.01030        0.38950
H          1.49650       -0.58010        1.91840
H          4.52730       -0.91240        1.50960
H          3.39150       -2.13070        2.17690
H          3.64090       -0.65310        3.10440
C          4.73160        1.66100        3.36720
H          3.65870        3.46720        3.33950
H          4.48590        3.08130        1.79080
H          4.16440        1.21390        4.21020
H          5.60540        2.19870        3.79300
H          5.14930        0.90750        2.68040
