26
TSA8_9_Et_Br_Et
C          2.39890        1.19750        0.93930
C          1.01700        1.44440        0.23410
C          2.36580       -0.33240        1.28950
H          3.19620        1.43120        0.20080
Br         0.75870        0.44450       -1.42050
C          2.53630        2.19650        2.17020
C          1.97000        3.58870        1.79370
C          0.61370        3.47880        1.13340
O          0.78950        2.79410       -0.07520
C          3.96400        2.55810        2.70590
H          1.89650        1.81380        2.99550
H          2.64410        4.11080        1.07580
H          0.24210        4.50050        0.90930
H         -0.14260        2.99510        1.79660
C          3.57470       -1.01080        1.90390
H          2.21560       -0.89500        0.34700
H          1.49230       -0.54090        1.94660
H          4.47930       -0.83410        1.28560
H          3.39350       -2.10670        1.93560
H          3.69420       -0.71320        2.95610
C          4.83640        1.51110        3.37040
H          3.81960        3.33360        3.49380
H          4.56400        3.01830        1.88890
H          4.29430        1.02420        4.20810
H          5.73370        2.01060        3.79460
H          5.22720        0.79870        2.62720
