14
TSA8_9_F_I_F
C          1.11860       -1.37950       -0.48300
C          1.73260       -0.94720        0.82120
F          2.11390       -1.45690       -1.44150
H          0.37540       -0.62150       -0.81250
I          1.09460        0.83050        1.76350
C          0.42380       -2.74230       -0.35570
C         -0.71660       -2.67350        0.62820
C         -0.74670       -3.42510        1.73220
O          2.60390       -1.62160        1.34720
F         -0.08190       -3.11410       -1.58850
H          1.17300       -3.50470       -0.04560
H         -1.53690       -1.98850        0.43340
H          0.05640       -4.11800        1.96320
H         -1.58370       -3.34550        2.41810
