20
TSA8_9_OH_CHF2_NH2
C          1.86600        0.26440       -0.10590
C          1.37810        1.51860       -0.21770
O          2.14390       -0.29020        1.09010
H          2.02050       -0.33780       -0.99810
C          1.03250        2.06740       -1.57410
C          2.99940        4.59570        0.84510
C          3.19550        3.39100        1.40110
C          2.02990        2.58070        1.89860
O          1.15190        2.32690        0.85780
N          4.08580        5.37150        0.37060
H          1.99160        4.99160        0.75110
H          4.20030        2.99130        1.50010
H          1.50090        3.17300        2.67430
H          2.38200        1.65010        2.38230
H          2.46840       -1.19930        1.14990
F         -0.30430        2.41610       -1.60650
F          1.79830        3.19210       -1.81820
H          1.22620        1.33120       -2.38410
H          5.05540        5.03100        0.43880
H          3.90610        6.29400       -0.05160
