14
TSA8_9_I_Br_Cl
C          2.19580       -0.24300       -1.82670
C          1.19430       -1.31860       -2.15250
I          1.31880        1.07060       -0.36710
H          3.09230       -0.71060       -1.36470
Br         1.59700       -3.15230       -1.78860
C          2.62340        0.52690       -3.09230
C          3.64570        1.58230       -2.75650
C          3.43030        2.87940       -2.99700
O          0.11670       -1.03200       -2.65030
Cl         3.35770       -0.58410       -4.28500
H          1.72490        0.98860       -3.55830
H          4.58720        1.27980       -2.30650
H          2.50290        3.22210       -3.44590
H          4.18980        3.61110       -2.74230
