14
TSA8_9_I_Br_Cl
C          2.66170       -0.32650       -1.71330
C          1.15260        0.04480       -1.82290
I          3.57030        0.66680       -0.02720
H          2.76920       -1.40770       -1.48000
Br         0.14210       -1.51510       -2.38430
C          3.34090        0.01490       -3.04280
C          3.17910        1.50950       -3.36060
C          1.86820        2.06570       -2.77540
O          0.86260        1.07780       -2.76840
Cl         5.05810       -0.47110       -3.09280
H          2.81060       -0.55800       -3.83480
H          4.00850        2.13510       -2.96510
H          1.54390        2.93990       -3.37650
H          2.01380        2.45120       -1.74230
