16
TSA8_9_OH_Br_CN
C          2.62230       -0.14640       -1.75060
C          1.49100       -1.06910       -1.20470
O          2.37430        1.19480       -1.39030
H          3.60020       -0.44080       -1.31240
Br         2.02820       -2.13990        0.31950
C          2.69130       -0.31560       -3.28480
C          1.29760       -0.10180       -3.87250
C          0.27360       -0.99650       -3.14010
O          0.90030       -1.86830       -2.21240
C          3.67860        0.53690       -3.96060
H          2.98930       -1.36660       -3.49540
H          0.98800        0.96470       -3.78270
H         -0.24600       -1.60180       -3.90980
H         -0.50830       -0.38350       -2.63520
H          1.39100        1.33900       -1.33840
N          4.44690        1.19110       -4.52750
