20
TSA8_9_CHF2_H_CF3
C         -0.15980       -1.86560        0.10670
C          0.48270       -1.06310        1.25320
C          0.82910       -1.94100       -1.08080
H         -1.03930       -1.29290       -0.26120
H         -0.25970       -0.75990        2.02710
C         -0.66020       -3.21540        0.70970
C          0.47120       -3.91500        1.47880
C          1.08220       -2.93090        2.48510
O          1.56680       -1.76860        1.83380
C         -1.33890       -4.17930       -0.28050
H         -1.43810       -2.94600        1.46080
H          1.25710       -4.28320        0.78830
H          1.92900       -3.43230        2.99790
H          0.34580       -2.66380        3.27710
F          1.98050       -2.64070       -0.77220
F          0.23250       -2.49830       -2.19540
H          1.12380       -0.90680       -1.36080
F         -0.43440       -4.69100       -1.19270
F         -1.88800       -5.23990        0.41840
F         -2.35470       -3.52680       -0.95610
