24
TSA8_9_OMe_Et_Br
C          2.26150        0.08430       -0.98850
C          1.18530       -0.97900       -1.08390
O          1.67920        1.28480       -0.49770
H          3.03880       -0.34060       -0.30530
C          1.36480       -2.28720       -0.34240
C          3.01130        0.36870       -2.31720
C          2.23640        1.16660       -3.34450
C          1.21390        0.68210       -4.05260
O          0.16610       -0.76720       -1.72290
Br         4.62510        1.37950       -1.89850
H          3.37490       -0.58190       -2.76740
H          2.54560        2.18760       -3.55040
H          0.87360       -0.33800       -3.94440
H          0.71970        1.31750       -4.78090
C          2.21510        1.64530        0.75500
H          3.27950        1.94720        0.65790
H          2.08400        0.83370        1.50320
H          1.65560        2.52740        1.12870
C          0.20560       -3.26440       -0.54120
H          1.46940       -2.07270        0.74350
H          2.29710       -2.77510       -0.69910
H         -0.74440       -2.82200       -0.17470
H          0.40430       -4.19700        0.02820
H          0.10140       -3.52480       -1.61670
