24
TSA8_9_OMe_Et_Br
C          2.45860        0.18730       -1.05040
C          1.20200       -0.74560       -1.16540
O          2.05060        1.53610       -0.88700
H          3.12310       -0.14010       -0.21300
C          1.49580       -2.13280       -0.57200
C          3.25600        0.06760       -2.35260
C          2.39060        0.49260       -3.55160
C          0.89780        0.24310       -3.27680
O          0.72450       -0.92360       -2.50540
Br         4.90840        1.08660       -2.30000
H          3.52690       -1.00200       -2.48410
H          2.49670        1.57020       -3.80290
H          0.35900        0.14830       -4.24200
H          0.43190        1.10800       -2.75200
C          1.95080        1.85980        0.48240
H          2.96220        1.95680        0.93320
H          1.32790        1.12260        1.03840
H          1.44540        2.84270        0.57450
C          0.24870       -3.01360       -0.56400
H          1.83910       -2.01520        0.47860
H          2.29650       -2.63710       -1.15470
H         -0.55710       -2.53300        0.03090
H          0.49140       -3.99660       -0.10760
H         -0.11610       -3.18940       -1.59820
