20
TSA8_9_CHF2_CF3_Cl
C          1.66420       -1.82110        0.19980
C          0.91550       -0.90090        1.14730
C          1.62310       -1.24170       -1.23400
H          2.73400       -1.83130        0.50780
C          1.63750       -0.22320        2.27830
C          1.15470       -3.28500        0.34640
C         -0.29380       -3.47300       -0.03960
C         -1.21250       -3.86960        0.84760
O         -0.28230       -0.70530        0.99490
Cl         2.14940       -4.42990       -0.59710
H          1.29540       -3.56900        1.41350
H         -0.60450       -3.29280       -1.06280
H         -0.94940       -4.06570        1.88230
H         -2.24440       -3.99860        0.53760
F          2.38420       -1.99900       -2.10460
F          0.33110       -1.15100       -1.71950
H          2.05400       -0.21710       -1.21960
F          0.76640        0.56610        3.00930
F          2.18520       -1.17860        3.11480
F          2.64790        0.57420        1.77300
