20
TSA8_9_CHF2_CF3_Cl
C          1.92040       -0.04790        0.06690
C          1.27670       -0.90090        0.89780
C          2.09080       -0.23770       -1.42240
H          2.36090        0.86110        0.46360
C          1.17200       -0.58750        2.38570
C         -0.10420       -5.33990        0.42630
C         -0.41910       -4.07160        0.14110
C         -0.06540       -2.94090        1.06250
O          0.73060       -2.04060        0.38510
Cl        -0.53650       -6.63350       -0.67860
H          0.42070       -5.59280        1.34310
H         -0.94660       -3.84470       -0.78140
H          0.46710       -3.32430        1.95900
H         -1.00510       -2.44400        1.38130
F          3.43970       -0.26040       -1.72330
F          1.50870       -1.39830       -1.90050
H          1.62460        0.62430       -1.94320
F         -0.15750       -0.50890        2.75640
F          1.78740       -1.58930        3.11260
F          1.77900        0.61330        2.71420
