27
TSA8_9_Me_OMe_Et
C          1.81150        0.03270       -0.07260
C          1.73140       -1.19350       -0.64180
C          1.70760        1.38530       -0.71650
H          1.95250        0.06410        1.00510
O          1.79740       -2.25280        0.20590
C          4.61660       -0.07450       -2.82310
C          3.76750       -1.11080       -2.82790
C          2.29340       -0.92180       -3.04620
O          1.59410       -1.45610       -1.97710
C          6.08820       -0.26220       -2.57390
H          4.24680        0.93230       -2.99560
H          4.13420       -2.11980       -2.65840
H          2.00120       -1.48180       -3.95740
H          2.03350        0.12520       -3.24980
H          1.43540        1.37820       -1.77560
H          2.66390        1.93080       -0.57830
H          0.90340        1.95390       -0.20530
C          1.94340       -3.55620       -0.21750
H          1.93250       -4.22980        0.66330
H          2.91720       -3.67200       -0.74090
H          1.11540       -3.84130       -0.90090
C          6.51550        0.54380       -1.35400
H          6.65350        0.08790       -3.46380
H          6.33170       -1.33380       -2.40200
H          6.31880        1.62500       -1.51930
H          7.60220        0.40320       -1.17570
H          5.95780        0.20610       -0.45380
