16
TSA8_9_F_NO2_I
C          1.84450        0.17500       -0.10260
C          1.44340        1.39650       -0.52890
F          2.28970       -0.06400        1.15740
H          1.80650       -0.67830       -0.77120
N          0.96310        1.55410       -1.86420
C          4.34020        3.72700        1.61510
C          3.57570        2.66670        1.33450
C          2.07650        2.70230        1.49120
O          1.46130        2.50920        0.26730
I          6.43320        3.63230        1.36100
H          3.90430        4.65530        1.97140
H          4.05000        1.75920        0.97640
H          1.76000        3.69590        1.87520
H          1.73140        1.95280        2.23240
O          0.60970        2.62900       -2.24310
O          0.91730        0.53430       -2.69640
