16
TSA8_9_F_NO2_I
C          2.93830        1.21930       -0.03390
C          1.45230        1.63630       -0.27210
F          3.00680        0.25780        0.96140
H          3.37150        0.76970       -0.95290
N          1.26540        2.02780       -1.65730
C          3.71840        2.45990        0.39690
C          3.12500        3.02720        1.69820
C          1.63420        2.66950        1.83920
O          0.99250        2.69330        0.58340
I          5.81440        2.07820        0.61560
H          3.60160        3.22210       -0.40400
H          3.63310        2.63820        2.60700
H          1.14990        3.38960        2.53030
H          1.50120        1.66540        2.30200
O          0.86770        3.11930       -1.93660
O          1.47070        1.15170       -2.61730
