17
TSA8_9_H_I_CBr3
C          2.94740        0.54430       -2.52080
C          1.65270        0.28490       -1.79590
H          3.79140        0.21400       -1.87850
H          2.94440       -0.08800       -3.43110
I          0.21820       -1.02640       -2.62160
C          3.11800        2.03050       -2.92900
C          3.17650        2.90660       -1.69160
C          2.26860        3.85850       -1.45300
O          1.42430        0.80810       -0.71680
C          4.38190        2.25910       -3.80500
H          2.23790        2.31340       -3.55030
H          3.97750        2.75870       -0.97320
H          1.45030        4.04100       -2.14250
H          2.34280        4.46500       -0.55630
Br         4.52150        4.12870       -4.32300
Br         6.03190        1.76910       -2.89410
Br         4.28950        1.24590       -5.46240
