19
TSA8_9_NO2_OH_NH2
C          2.45700        1.57080       -0.79790
C          1.50480        0.48410       -1.25700
N          2.67040        1.47420        0.63850
H          3.43160        1.40310       -1.31220
O          1.91050       -0.46350       -2.12980
C          1.98010        2.98390       -1.23620
C          0.65380        3.40000       -0.62690
C         -0.42620        3.64180       -1.37620
O          0.35870        0.45030       -0.83680
N          3.00600        3.97750       -0.91330
H          1.88220        2.95340       -2.34590
H          0.57110        3.52000        0.44770
H         -0.39700        3.54180       -2.45650
H         -1.35530        3.94360       -0.90350
O          3.76460        1.25310        1.06310
O          1.66350        1.57080        1.48060
H          2.80930       -0.48190       -2.48700
H          3.10780        4.07130        0.12370
H          2.72550        4.90700       -1.30350
