21
TSA8_9_CBr3_CBr3_CN
C          1.57770       -0.08350       -0.08860
C          1.31130       -0.93520       -1.16860
C          1.72660        1.42470        0.22800
H          1.64170       -0.58740        0.86600
C          1.47210       -2.47630       -1.01620
C          0.55750        1.11680       -5.17560
C          0.91040        1.16030       -3.89050
C          0.11190        0.51060       -2.81440
O          0.87000       -0.56770       -2.40770
C          1.53890        1.51830       -6.14830
H         -0.39390        0.70230       -5.49610
H          1.87670        1.56900       -3.62300
H         -0.86840        0.15140       -3.20680
H         -0.14390        1.16610       -1.98120
Br         0.70810        2.07960        1.77070
Br         3.55260        1.45250        0.84640
Br         1.61690        2.83010       -1.09960
Br         0.96980       -3.13170        0.72640
Br         0.36400       -3.41210       -2.30690
Br         3.26850       -3.19320       -1.37550
N          2.35390        1.85140       -6.89840
