21
TSA8_9_CBr3_CBr3_CN
C          2.04360        0.25600       -1.99380
C          0.98060       -0.82810       -1.59560
C          2.14660        1.39260       -0.89060
H          3.05600       -0.17640       -2.07850
C          1.41430       -2.27970       -1.24880
C          1.69780        0.61660       -3.46030
C          0.30500        1.22000       -3.58240
C         -0.66270        0.53910       -2.60840
O         -0.26540       -0.78680       -2.30770
C          2.70380        1.38560       -4.20700
H          1.65980       -0.35670       -4.00100
H          0.26820        2.31800       -3.41250
H         -1.66930        0.54000       -3.07230
H         -0.77360        1.12530       -1.68090
Br         0.73320        1.40500        0.46530
Br         3.75150        1.10730        0.16820
Br         2.28690        3.20840       -1.56980
Br         0.94370       -2.60360        0.59640
Br         0.46470       -3.58910       -2.33310
Br         3.30700       -2.69260       -1.44470
N          3.47370        1.98720       -4.82730
