18
TSA8_9_I_CCl3_CN
C          1.58860       -0.00690        0.03820
C          1.40860       -0.10930        1.49640
I          1.82950       -1.36810       -1.52130
H          1.50400        0.97710       -0.38040
C          1.56630        1.21410        2.29580
C          2.39470       -4.65640        2.21130
C          2.21820       -3.34720        2.43840
C          1.08740       -2.54320        1.82670
O          1.03990       -1.22330        2.29650
C          3.56270       -5.30440        2.76450
H          1.69880       -5.22530        1.59990
H          2.92920       -2.87030        3.08870
H          0.14740       -3.00480        2.13800
H          1.12320       -2.63990        0.72520
Cl         3.06140        2.19370        1.99140
Cl         0.19060        2.23300        1.89170
Cl         1.54590        0.90050        4.05220
N          4.50840       -5.78930        3.22390
