18
TSA8_9_I_CCl3_CN
C          2.61140       -1.56290        1.05300
C          1.76770       -0.77180        2.09230
I          1.70310       -1.48790       -0.90400
H          3.63090       -1.14740        0.90340
C          1.81550        0.75960        2.25030
C          2.69670       -3.05120        1.54380
C          1.67450       -3.34740        2.65130
C          0.35510       -2.67920        2.26920
O          0.43310       -1.25750        2.21200
C          4.02140       -3.46410        2.03510
H          2.47990       -3.71990        0.68880
H          1.99790       -2.89540        3.62280
H         -0.40840       -2.96230        3.01930
H          0.03210       -3.07030        1.27960
Cl         3.33090        1.49190        1.66640
Cl         0.43530        1.58280        1.47050
Cl         1.71080        1.06700        4.00160
N          5.04340       -3.83710        2.43130
