17
TSA8_9_I_CBr3_H
C          1.86950       -1.92690       -0.65970
C          0.69240       -2.29450        0.21610
I          1.45920        0.01120       -1.49790
H          2.77930       -1.83530       -0.02810
C          0.86160       -2.49370        1.70740
C          2.11250       -3.04160       -1.70150
C          3.40090       -2.90190       -2.47710
C          3.62370       -1.95300       -3.39060
O         -0.40920       -2.43160       -0.29700
H          2.19980       -3.99620       -1.13750
H          1.25120       -3.13720       -2.39750
H          4.18370       -3.63430       -2.30070
H          2.87690       -1.21300       -3.64270
H          4.57240       -1.92550       -3.91700
Br         1.51550       -0.86380        2.52960
Br        -0.81460       -2.96300        2.57500
Br         2.12550       -3.92300        2.05310
