17
TSA8_9_I_CBr3_H
C          1.86040       -0.21680        0.06310
C          1.55000       -1.53390        0.17580
I          2.13890        0.89730       -1.72690
H          1.94630        0.41210        0.93770
C          1.28580       -2.18530        1.52470
C          2.43700       -4.51220       -3.31700
C          2.71100       -3.80760       -2.21560
C          2.22530       -2.40030       -2.02680
O          1.42230       -2.35690       -0.90430
H          2.80630       -5.52780       -3.41520
H          1.84760       -4.08900       -4.12460
H          3.30390       -4.26540       -1.42920
H          1.63650       -2.06140       -2.90640
H          3.12320       -1.75970       -1.91060
Br         1.43270       -1.03820        3.09560
Br        -0.50600       -2.92340        1.52300
Br         2.53970       -3.64290        1.76570
