20
TSA8_9_CBr3_Br_CHF2
C          1.52150       -2.04290       -0.13660
C          1.92200       -1.35550        1.22720
C          2.42690       -1.60730       -1.34120
H          0.51780       -1.64690       -0.40430
Br         3.78590       -1.56380        1.74590
C          1.36960       -3.56630        0.17170
C          0.30620       -3.75100        1.28590
C         -0.00360       -2.45450        2.05020
O          1.16790       -1.74680        2.37420
C          1.03250       -4.51670       -0.99450
H          2.34000       -3.91050        0.59040
H         -0.67010       -4.11930        0.89920
H         -0.54540       -2.71720        2.98260
H         -0.68930       -1.79380        1.47360
Br         1.56170       -1.94920       -3.05070
Br         2.67910        0.32240       -1.33040
Br         4.18600       -2.44170       -1.40760
F         -0.14060       -4.13470       -1.62210
F          2.06050       -4.58300       -1.91320
H          0.89980       -5.54580       -0.59650
