20
TSA8_9_F_CH2F_CCl3
C          2.13970        0.31990       -0.31980
C          1.46400        1.44680       -0.62220
F          2.55210        0.04370        0.94530
H          2.34900       -0.41890       -1.08600
C          0.98970        1.68600       -2.02810
C          2.57410        4.88200       -0.31420
C          3.03400        3.84740        0.40980
C          2.08080        2.97460        1.18010
O          1.17320        2.39530        0.31070
C          3.48450        5.77680       -1.11240
H          1.50500        5.08010       -0.32700
H          4.09730        3.62920        0.44340
H          1.53030        3.61180        1.90410
H          2.63650        2.21450        1.76270
F         -0.38180        1.84270       -2.03940
H          1.26280        0.85260       -2.70990
H          1.46130        2.61570       -2.41000
Cl         2.52560        7.04140       -1.92390
Cl         4.67490        6.56910       -0.04780
Cl         4.34010        4.83340       -2.35980
