23
TSA8_9_F_CH2F_Et
C          3.18820        0.96890       -1.81390
C          1.73550        0.68480       -1.51220
F          3.96260        0.43180       -0.79980
H          3.45050        0.45800       -2.76620
C          0.91750       -0.13720       -2.46690
C          3.46010        2.48460       -1.98910
C          3.24050        3.24130       -0.69420
C          2.31200        4.19580       -0.57920
O          1.22630        1.11360       -0.48700
C          4.86940        2.77890       -2.56280
H          2.74640        2.85280       -2.76190
H          3.85050        3.00420        0.17200
H          1.67620        4.46740       -1.41630
H          2.18340        4.71450        0.36520
F         -0.37970       -0.28050       -2.00660
H          1.37440       -1.14260       -2.57610
H          0.89470        0.36170       -3.45850
C          6.05150        2.35670       -1.68430
H          4.95030        3.87390       -2.74210
H          4.96950        2.27180       -3.54730
H          6.02220        2.86920       -0.70120
H          6.99810        2.64070       -2.19090
H          6.07130        1.25950       -1.53480
