20
TSA8_9_H_CBr3_CHF2
C          1.74730        0.17960       -0.10460
C          1.56910        1.50890        0.04480
H          1.99370       -0.47340        0.72190
H          1.63860       -0.31600       -1.06000
C          1.19790        2.41520       -1.11640
C          3.07230        3.95890        3.02750
C          3.37810        2.67210        2.79460
C          2.31440        1.68600        2.41230
O          1.70520        2.13080        1.25170
C          4.09870        4.99740        3.38620
H          2.03770        4.28310        2.94870
H          4.40400        2.32330        2.86520
H          1.55800        1.62180        3.22280
H          2.79430        0.69620        2.29660
Br         0.99770        1.55760       -2.85610
Br        -0.47500        3.30640       -0.71380
Br         2.57190        3.77020       -1.29860
F          5.37640        4.46790        3.44720
F          4.07420        6.00110        2.43620
H          3.84380        5.43090        4.37480
