22
TSA8_9_CBr3_NO2_CH2F
C          2.68810        1.23030       -0.80420
C          1.24750        1.09490       -1.31090
C          2.81370        0.83470        0.71330
H          3.27580        0.45610       -1.34180
N          0.98570        0.58920       -2.55200
C          3.23260        2.60430       -1.33550
C          2.61250        3.79130       -0.63340
C          1.63040        4.51400       -1.17840
O          0.32210        1.49830       -0.62280
C          4.76220        2.75730       -1.39240
H          2.93170        2.62340       -2.40940
H          2.96310        4.06000        0.35710
H          1.22660        4.26850       -2.15570
H          1.20700        5.34750       -0.62800
Br         2.02810       -0.92270        0.99600
Br         4.64710        0.63490        1.30790
Br         1.91030        2.03320        1.95560
O          1.86740        0.23190       -3.26960
O         -0.25780        0.52280       -2.98600
F          5.32110        2.96350       -0.14780
H          5.01410        3.64570       -2.01140
H          5.22190        1.86890       -1.87770
