22
TSA8_9_CBr3_NO2_CH2F
C          1.79130       -0.00650       -0.00500
C          1.54590        1.02680       -0.85150
C          1.88130        0.02230        1.51200
H          1.97230       -0.98770       -0.43340
N          1.53210        0.78970       -2.27300
C          3.67500        3.82640       -2.26250
C          3.09840        3.62530       -1.07120
C          1.61030        3.49400       -0.90190
O          1.32980        2.26760       -0.33030
C          5.16580        3.92590       -2.38050
H          3.06870        3.90910       -3.15980
H          3.71820        3.53690       -0.18220
H          1.04620        3.65150       -1.84180
H          1.27750        4.28970       -0.20410
Br         0.62860       -1.27110        2.22030
Br         3.66570       -0.54420        2.00220
Br         1.54690        1.70680        2.43160
O          1.76340       -0.29840       -2.70780
O          1.20030        1.73880       -3.11910
F          5.63000        4.99350       -1.63360
H          5.45000        4.07570       -3.44250
H          5.63540        2.98820       -2.01320
