22
TSA8_9_CBr3_NO2_CH2F
C          2.76570        1.20570       -0.78200
C          1.23380        1.23320       -1.04490
C          3.03150        0.84830        0.72440
H          3.19540        0.34100       -1.33390
N          0.85460        0.90210       -2.41130
C          3.36600        2.50350       -1.41770
C          2.62740        3.75270       -0.93370
C          1.12720        3.58430       -1.17440
O          0.60330        2.41450       -0.55750
C          4.88280        2.69760       -1.30190
H          3.16290        2.41880       -2.51010
H          2.83300        3.96180        0.13130
H          0.91930        3.60230       -2.26250
H          0.60910        4.46950       -0.75060
Br         2.10410       -0.81080        1.15260
Br         4.89290        0.42650        1.08920
Br         2.42250        2.14300        2.04010
O          1.23340       -0.12380       -2.89050
O         -0.07080        1.59340       -3.04170
F          5.26020        3.03310       -0.01500
H          5.18870        3.53980       -1.95930
H          5.41910        1.78670       -1.64220
