19
TSA8_9_CN_NO2_NO2
C          2.78790        0.30050        1.25840
C          1.71920        1.39880        1.44390
C          2.24120       -0.86650        0.50960
H          3.58450        0.73390        0.62350
N          1.41790        2.29890        0.47000
C          3.37040       -0.09720        2.68460
C          2.64950       -1.32930        3.14780
C          1.44570       -1.25910        3.70190
O          1.22070        1.57830        2.54850
N          4.81420       -0.28260        2.78680
H          3.18160        0.75440        3.37540
H          3.01200       -2.29530        2.80610
H          1.00540       -0.30970        3.97200
H          0.87700       -2.16710        3.83170
N          1.82770       -1.83020       -0.01460
O          0.79970        3.28360        0.74930
O          1.86560        2.15720       -0.75490
O          5.34960       -1.23930        2.31570
O          5.49890        0.49360        3.60600
