14
TSA8_9_H_Cl_H
C          1.15590       -0.55850       -1.57570
C          1.29440       -1.49630       -0.35460
H          2.14660       -0.31490       -2.01440
H          0.70380        0.39230       -1.21940
Cl         0.23770       -1.04950        1.02570
C          0.28510       -1.18790       -2.67250
C         -0.82370       -1.98590       -2.00840
C         -0.15190       -3.14980       -1.23880
O          1.14040       -2.86080       -0.69600
H         -0.09730       -0.40320       -3.35900
H          0.89180       -1.90170       -3.27390
H         -1.38090       -1.30930       -1.32400
H          0.00510       -3.95560       -1.98610
H         -0.83490       -3.54990       -0.45990
