14
TSA8_9_F_H_Cl
C          2.04120       -0.15880       -0.04080
C          1.29070       -1.24210        0.16440
F          2.24400        0.31460       -1.29860
H          2.49480        0.35360        0.80110
H          1.13980       -1.60100        1.17910
C         -0.30570       -4.67590       -2.52600
C         -0.56700       -3.44910       -2.06140
C         -0.08190       -2.98900       -0.71780
O          0.72250       -1.88320       -0.88300
Cl        -0.89530       -5.17000       -4.10450
H          0.27210       -5.38440       -1.94060
H         -1.14760       -2.75930       -2.66700
H          0.49020       -3.79190       -0.20110
H         -0.96320       -2.72190       -0.09530
