16
TSA8_9_Cl_Cl_NH2
C          1.80720        0.76830       -2.01870
C          0.55660        0.06950       -2.48500
Cl         1.68780        1.02620       -0.25220
H          2.68500        0.11260       -2.21000
Cl         0.65240       -1.51880       -3.22650
C          2.00280        2.10830       -2.76080
C          3.24720        2.81550       -2.26920
C          3.19290        4.02180       -1.69560
O         -0.53600        0.59930       -2.34990
N          2.10870        1.87500       -4.20210
H          1.10800        2.74480       -2.57380
H          4.21220        2.32960       -2.38400
H          2.24700        4.53830       -1.56140
H          4.10310        4.50150       -1.35160
H          2.95360        1.29540       -4.41620
H          2.19650        2.79060       -4.70040
