25
TSA8_9_Et_NO2_CF3
C          1.82230        0.22990       -2.13430
C          0.43900       -0.35620       -2.40000
C          1.73880        0.93540       -0.74870
H          2.55860       -0.59710       -2.04550
N          0.24050       -1.70080       -2.51290
C          2.26150        1.14850       -3.33150
C          3.67460        1.65900       -3.15280
C          3.96220        2.96520       -3.12810
O         -0.51280        0.40700       -2.51200
C          2.22260        0.41210       -4.69650
H          1.55500        2.00680       -3.39940
H          4.48610        0.94220       -3.05950
H          3.18380        3.71510       -3.22640
H          4.99050        3.28980       -3.00690
C          3.06840        1.35880       -0.12290
H          1.30140        0.20520       -0.03050
H          1.05580        1.81150       -0.80070
H          3.75520        0.48920       -0.05140
H          2.87780        1.74150        0.90220
H          3.55430        2.17880       -0.67420
O         -0.85510       -2.12950       -2.72080
O          1.24390       -2.54450       -2.39730
F          3.04180       -0.70390       -4.67110
F          0.93830        0.01680       -5.02340
F          2.66050        1.26210       -5.69870
