16
TSA8_9_NH2_Cl_Cl
C          2.72840        1.02150       -1.05950
C          1.57400        0.13590       -1.47660
N          2.68930        1.26520        0.38530
H          3.65640        0.45170       -1.28740
Cl         1.89500       -1.42090       -2.22740
C          2.85400        2.35830       -1.84290
C          1.75570        3.37330       -1.60130
C          0.51170        3.23850       -2.06850
O          0.41870        0.44980       -1.24230
Cl         4.41090        3.11650       -1.38760
H          2.92120        2.15170       -2.93350
H          1.99180        4.28290       -1.05550
H          0.21540        2.38330       -2.66230
H         -0.22280        4.01370       -1.87470
H          2.71480        0.35200        0.89510
H          1.80610        1.76320        0.64460
