17
TSA8_9_Br_CN_NH2
C          1.70490       -1.51360       -1.13400
C          2.48210       -2.17330       -0.02480
Br         2.71440       -0.00310       -1.83980
H          0.78750       -1.08900       -0.67460
C          1.93000       -2.19710        1.30910
C          1.29560       -2.53510       -2.22890
C          0.19970       -1.98620       -3.11610
C         -1.01160       -1.70950       -2.61580
O          3.53840       -2.74220       -0.24790
N          2.45530       -2.95120       -3.02810
H          0.87660       -3.43920       -1.73300
H          0.37580       -1.83610       -4.17630
H         -1.23160       -1.87270       -1.56390
H         -1.79900       -1.33270       -3.25780
N          1.47780       -2.19580        2.37370
H          2.79950       -2.15730       -3.61610
H          2.16440       -3.71560       -3.68000
