17
TSA8_9_Br_CN_NH2
C          2.22420       -1.85410       -1.34790
C          1.69790       -2.45610       -0.02710
Br         3.64390       -0.55280       -1.58450
H          1.56750       -0.99080       -1.50180
C          1.77850       -1.60680        1.16740
C          1.86970       -2.90650       -2.41720
C          0.36680       -2.72600       -2.64980
C         -0.35430       -2.54730       -1.27590
O          0.40130       -3.07270       -0.17420
N          2.66230       -2.87430       -3.64370
H          2.00310       -3.93380       -1.99440
H          0.20190       -1.78080       -3.23300
H         -1.32960       -3.06230       -1.35560
H         -0.59210       -1.47340       -1.07870
N          1.87500       -0.93100        2.09990
H          2.51110       -1.99420       -4.17600
H          2.37200       -3.68960       -4.23850
