24
TSA8_9_OH_CF3_Et
C          3.09480        1.36320        1.15770
C          1.86670        2.21200        0.88210
O          2.71790        0.01200        1.20970
H          3.82230        1.47760        0.32440
C          1.76470        3.03510       -0.37380
C          3.82840        1.76350        2.47880
C          2.93970        1.62150        3.70620
C          2.45350        0.44700        4.12360
O          0.93470        2.20470        1.67290
C          4.38680        3.21010        2.43490
H          4.69910        1.08530        2.62400
H          2.69750        2.50350        4.29400
H          1.83280        0.40570        5.01260
H          2.67200       -0.47890        3.60500
H          2.55130       -0.28080        0.27520
F          0.55010        3.69670       -0.42230
F          2.78040        3.97040       -0.40970
F          1.86740        2.20850       -1.47690
C          5.48510        3.41590        1.38830
H          4.84840        3.43730        3.42180
H          3.56570        3.94030        2.26730
H          6.32580        2.71400        1.57300
H          5.87110        4.45450        1.46250
H          5.11050        3.27080        0.35730
