24
TSA8_9_OH_CF3_Et
C          3.40450        1.18130        0.98880
C          1.91590        1.54760        0.75920
O          3.47980       -0.22230        1.04830
H          4.04640        1.49520        0.14060
C          1.60520        2.97430        0.28710
C          3.93770        1.74910        2.33530
C          2.79900        1.83070        3.37850
C          1.66240        0.85490        3.04980
O          1.02810        1.13630        1.80220
C          4.66070        3.11900        2.25580
H          4.70170        1.02890        2.70580
H          2.33690        2.84000        3.39040
H          0.90030        0.95110        3.85130
H          2.02150       -0.19610        3.07140
H          3.33700       -0.56320        0.12600
F          0.30420        3.01130       -0.17930
F          1.71840        3.89220        1.30970
F          2.45170        3.32810       -0.74750
C          5.91580        3.10790        1.38030
H          4.98440        3.39480        3.28370
H          3.98580        3.91550        1.89110
H          6.62900        2.33450        1.73580
H          6.41110        4.10010        1.44150
H          5.67370        2.92580        0.31520
