15
TSA8_9_H_F_OH
C          0.75050       -0.56340       -1.65970
C          1.07500       -1.42680       -0.42070
H          1.66680       -0.30790       -2.23330
H          0.31220        0.38500       -1.27880
F          0.24140       -1.12480        0.64800
C         -0.22710       -1.28600       -2.60440
C         -1.18200       -2.12380       -1.76230
C         -0.32740       -3.21070       -1.06110
O          1.00140       -2.80790       -0.71230
O         -0.91050       -0.34940       -3.39260
H          0.35270       -1.98060       -3.25850
H         -1.67860       -1.45650       -1.02360
H         -0.21390       -4.03170       -1.79970
H         -0.86540       -3.62580       -0.18270
H         -1.39020       -0.86590       -4.09200
