24
TSA8_9_OMe_Me_Me
C          1.08520        0.67140        1.55360
C          1.55930        1.27190        0.24610
O          2.11050       -0.14590        2.09350
H          0.14400        0.08920        1.39830
C          0.79920        1.02920       -1.02220
C          0.74160        1.78650        2.57090
C         -0.37470        2.65900        2.03830
C         -0.21330        3.96770        1.82360
O          2.56960        1.95980        0.22290
C          0.30250        1.19080        3.91490
H          1.65530        2.39720        2.75480
H         -1.33930        2.20680        1.82200
H          0.73380        4.45830        2.02520
H         -1.03850        4.55880        1.43990
C          2.13770       -1.42970        1.49500
H          2.01200       -2.19640        2.28720
H          3.12040       -1.57480        1.00130
H          1.35210       -1.61270        0.72640
H          1.28870        1.54380       -1.87700
H         -0.23490        1.41790       -0.91570
H          0.76180       -0.05920       -1.23440
H         -0.60240        0.55790        3.78940
H          0.07250        2.00550        4.63500
H          1.11410        0.57040        4.35070
