24
TSA8_9_OMe_Me_Me
C          1.48290       -0.08260       -0.09610
C          1.27700        1.23700       -0.19140
O          1.63090       -0.64350        1.12670
H          1.49860       -0.70520       -0.98840
C          1.07020        1.90010       -1.52840
C          0.70040        2.50570        3.73330
C         -0.17300        2.44810        2.71610
C          0.25190        2.82520        1.32680
O          1.26310        1.96600        0.95020
C          0.31430        2.10140        5.12070
H          1.71750        2.84600        3.55460
H         -1.19180        2.11190        2.88920
H          0.61860        3.87290        1.32110
H         -0.62290        2.74360        0.64470
C          1.69220       -2.00470        1.31760
H          1.79960       -2.21180        2.40230
H          2.56520       -2.42860        0.77690
H          0.75510       -2.48030        0.95680
H          1.86330        2.66240       -1.68080
H          0.08080        2.39840       -1.56620
H          1.12380        1.17000       -2.36430
H          0.01630        1.03150        5.13000
H         -0.52890        2.72570        5.48190
H          1.18150        2.23540        5.80130
