20
TSA8_9_CHF2_Me_F
C          2.52050        1.45300        0.36690
C          1.53380        1.31420       -0.77650
C          2.34220        0.28740        1.36230
H          3.53820        1.35000       -0.07330
C          2.03340        1.15620       -2.18190
C          2.51250        2.85160        1.05430
C          1.26700        3.21600        1.83090
C          0.10360        3.53230        1.25590
O          0.33100        1.28510       -0.56630
F          3.57980        2.89830        1.93610
H          2.69960        3.64150        0.29440
H          1.33100        3.26740        2.91440
H         -0.01290        3.55070        0.17950
H         -0.74610        3.80510        1.87320
F          3.32340        0.31940        2.33690
F          1.09960        0.33190        1.97040
H          2.43250       -0.67800        0.81940
H          2.62880        2.04840       -2.46770
H          1.18610        1.04870       -2.89240
H          2.67370        0.25160       -2.25080
