20
TSA8_9_CHF2_Me_F
C          2.06110        0.24950        0.02770
C          1.68420        1.25210       -0.82610
C          1.88420       -0.00130        1.51040
H          2.60400       -0.57770       -0.42340
C          2.03390        1.09460       -2.28420
C          2.23170        4.82400        1.51720
C          1.94760        3.53240        1.32030
C          0.69570        3.09220        0.60190
O          1.01550        2.41470       -0.55330
F          3.37370        5.17710        2.16250
H          1.56370        5.60490        1.16700
H          2.64740        2.78800        1.68370
H          0.10630        3.98610        0.30460
H          0.00480        2.50490        1.22970
F          3.13100       -0.09810        2.09920
F          1.14240        0.91190        2.20850
H          1.37070       -0.97890        1.62380
H          2.67460        1.94490       -2.59900
H          1.10150        1.10660       -2.88670
H          2.57760        0.15240       -2.51100
