20
TSA8_9_CHF2_Me_F
C          2.54300        1.63360        0.36310
C          1.34730        1.66100       -0.63440
C          2.35930        0.45570        1.33710
H          3.50410        1.47220       -0.17550
C          1.70110        1.12130       -2.01570
C          2.64990        3.00920        1.05820
C          1.29490        3.50530        1.57570
C          0.18220        3.21770        0.54770
O          0.73720        2.93800       -0.72490
F          3.61010        3.03160        2.05420
H          2.95970        3.73570        0.27420
H          1.00670        3.08630        2.56320
H         -0.49650        4.09300        0.48790
H         -0.45520        2.36600        0.88770
F          3.42850        0.37870        2.21140
F          1.18770        0.57510        2.06310
H          2.31730       -0.49360        0.76150
H          2.45900        1.77530       -2.49730
H          0.79070        1.09500       -2.65000
H          2.10610        0.09120       -1.92980
