22
TSA8_9_OMe_I_OMe
C          1.54750        0.10620        0.17580
C          1.16380       -1.11770       -0.18790
O          1.74840        1.05330       -0.77180
H          1.66120        0.34930        1.22950
I          0.77590       -2.57580        1.30650
C         -0.70310       -1.75710       -4.37730
C         -0.67070       -1.41420       -3.07750
C          0.07060       -2.22050       -2.05520
O          1.01590       -1.38370       -1.50830
O         -1.31480       -1.00330       -5.33300
H         -0.20910       -2.66890       -4.69770
H         -1.16340       -0.51030       -2.72970
H          0.57380       -3.09830       -2.51460
H         -0.65030       -2.58160       -1.29000
C          1.96730        2.37550       -0.46540
H          2.08890        2.94950       -1.40720
H          2.88590        2.48230        0.14890
H          1.09320        2.78410        0.08670
C         -1.84880        0.25620       -5.14440
H         -2.25800        0.62550       -6.10660
H         -1.05410        0.95760       -4.80840
H         -2.66930        0.22620       -4.39670
