22
TSA8_9_OMe_I_OMe
C          0.62940        0.18930       -1.66930
C          1.26790       -1.03210       -0.96660
O          1.61610        1.13690       -2.03460
H         -0.14050        0.62640       -0.98680
I          0.82360       -1.24920        1.12010
C         -0.12830       -0.26510       -2.92680
C         -1.02470       -1.42770       -2.49430
C         -0.13350       -2.60140       -2.03910
O          1.19900       -2.24330       -1.69180
O         -0.89000        0.82160       -3.42380
H          0.61820       -0.61880       -3.67930
H         -1.66950       -1.08010       -1.65610
H         -0.04690       -3.26680       -2.92340
H         -0.62290       -3.19240       -1.23560
C          1.91870        1.97570       -0.94030
H          2.67410        2.71870       -1.26760
H          2.36810        1.39890       -0.10250
H          1.02640        2.55060       -0.60740
C         -1.31790        0.55680       -4.74260
H         -0.46160        0.36180       -5.42530
H         -1.83140        1.46080       -5.13040
H         -2.05500       -0.27600       -4.76510
