21
TSA8_9_CCl3_OMe_Br
C          0.91280       -0.54720        1.12990
C          1.95310       -1.46540        1.83960
C          1.49320        0.78330        0.54470
H          0.54570       -1.11190        0.24460
O          3.07140       -1.70180        1.02660
C         -0.32140       -0.38490        2.07350
C         -0.70940       -1.72120        2.74120
C          0.05190       -2.89350        2.12540
O          1.45070       -2.72590        2.29860
Br        -0.15170        0.95030        3.49000
H         -1.17610       -0.05310        1.44760
H         -0.41110       -1.71670        3.81310
H         -0.20620       -3.04700        1.05500
H         -0.25590       -3.81760        2.65790
Cl         2.60180        0.45270       -0.81730
Cl         0.19140        1.80480       -0.12920
Cl         2.41390        1.74640        1.73470
C          4.21230       -1.51700        1.82750
H          5.11170       -1.60570        1.18410
H          4.28220       -2.30800        2.60760
H          4.24060       -0.50070        2.28090
