20
TSA8_9_CF3_CF3_Cl
C          1.92400       -0.07600       -0.04740
C          1.27520       -0.99880       -0.79580
C          2.10580        1.37990       -0.41380
H          2.36000       -0.36410        0.90340
C          1.16030       -2.43740       -0.30590
C         -0.08680       -1.03670       -5.26510
C         -0.40920       -0.61370       -4.03750
C         -0.05500       -1.40150       -2.81030
O          0.73460       -0.62280       -1.98910
Cl        -0.52000       -0.08460       -6.67540
H          0.44490       -1.97190       -5.41260
H         -0.94310        0.32460       -3.91710
H          0.48360       -2.33230       -3.08840
H         -0.99570       -1.66720       -2.28340
F          3.45810        1.65960       -0.47060
F          1.53600        1.71310       -1.62900
F          1.52970        2.16070        0.56990
F         -0.17150       -2.78700       -0.18660
F          1.77230       -3.28300       -1.21210
F          1.76380       -2.62320        0.92660
