17
TSA8_9_CBr3_H_Cl
C          1.80960        0.54290        1.57220
C          1.10160        1.11260        0.36000
C          1.73990       -1.02580        1.55910
H          2.88440        0.80380        1.45030
H          1.67740        1.63680       -0.39610
C          1.33520        1.31770        2.84730
C         -0.10280        1.08190        3.23870
C         -1.01500        2.05900        3.20530
O         -0.10560        1.00220        0.21590
Cl         2.36450        1.02820        4.27600
H          1.47860        2.39910        2.62210
H         -0.41110        0.10010        3.57550
H         -0.75490        3.06270        2.88340
H         -2.03860        1.85500        3.50190
Br         2.54080       -1.68080       -0.08970
Br         2.76860       -1.86590        2.97490
Br        -0.05560       -1.77690        1.61400
