17
TSA8_9_CBr3_H_Cl
C          1.69680        0.54480        2.07830
C          1.26880        1.46580        0.91550
C          1.59990       -0.96350        1.64800
H          2.77790        0.72020        2.27260
H          1.60420        2.51840        1.06180
C          0.91980        1.04680        3.33450
C         -0.58240        1.14190        3.07540
C         -0.81660        1.96400        1.80010
O         -0.13060        1.40570        0.69120
Cl         1.24150        0.16570        4.85050
H          1.26190        2.08830        3.52960
H         -1.03660        0.13830        2.98760
H         -0.51590        3.02550        1.95350
H         -1.90440        1.97330        1.58150
Br        -0.16490       -1.62160        1.16000
Br         2.71800       -1.23570        0.07880
Br         2.32540       -2.18180        2.97480
