19
TSA8_9_CBr3_CN_CN
C          1.46990        0.59740        1.65670
C          1.56020        1.97270        0.99310
C          2.23120       -0.62330        0.98800
H          0.42740        0.37070        1.40940
C          2.18590        2.22210       -0.28590
C          1.38860        0.70710        3.23430
C          0.56230       -0.42330        3.79820
C         -0.72360       -0.55360        3.44700
O          0.84240        2.86310        1.42660
C          2.64670        0.83550        3.98640
H          0.81710        1.62380        3.50350
H          1.00150       -1.14590        4.48230
H         -1.19380        0.16680        2.78050
H         -1.32300       -1.37260        3.81290
Br         1.19890       -1.22690       -0.55440
Br         4.03480       -0.26870        0.35980
Br         2.40000       -2.21550        2.09920
N          2.68720        2.46000       -1.29370
N          3.61180        0.99930        4.60280
