17
TSA8_9_CBr3_I_Br
C          1.84420       -0.02930        0.02870
C          1.16810       -0.98830        0.68860
C          2.14310        0.04900       -1.45710
H          2.22510        0.79830        0.62070
I          0.93970       -0.74380        2.79390
C         -0.13370       -5.35530       -0.26550
C         -0.48680       -4.07030       -0.37410
C         -0.09530       -3.05020        0.65440
O          0.65030       -2.06420        0.04700
Br        -0.65430       -6.61790       -1.60280
H          0.45220       -5.70560        0.57890
H         -1.07360       -3.74740       -1.22910
H          0.49710       -3.51940        1.47110
H         -1.02000       -2.60900        1.08500
Br         1.38580        1.69660       -2.13300
Br         4.06350        0.13180       -1.68040
Br         1.49100       -1.39240       -2.59310
