22
TSA8_9_OMe_CH2F_CN
C          1.81870        0.79970       -1.47930
C          2.10950       -0.55030       -2.12880
O          2.32200        1.09120       -0.16680
H          0.77020        0.52460       -1.34710
C          1.73760       -1.84770       -1.45700
C          1.90420        2.01830       -2.46840
C          0.67350        2.81280       -2.19720
C         -0.49050        2.23550       -2.52760
O          2.11190       -0.59460       -3.35160
C          3.11460        2.84490       -2.36800
H          1.84290        1.71580       -3.53530
H          0.71160        3.75090       -1.65010
H         -0.47820        1.27320       -3.05390
H         -1.43110        2.66830       -2.24670
C          1.31900        1.74150        0.64590
H          1.62850        2.75620        0.98870
H          1.05460        1.11470        1.52020
H          0.33950        1.91910        0.15380
F          0.41220       -2.15200       -1.73410
H          1.87810       -1.83130       -0.35930
H          2.35610       -2.64930       -1.90790
N          4.04820        3.52790       -2.33260
