22
TSA8_9_OMe_CH2F_CN
C          1.59280       -0.02850       -0.09270
C          1.40880       -0.51520       -1.34820
O          1.69600        1.30750        0.14350
H          1.67650       -0.72380        0.73930
C          1.39560       -1.97940       -1.64020
C          1.72280        3.12370       -3.70400
C          1.40060        2.53450       -2.55930
C          0.44230        1.40040       -2.52240
O          1.21510        0.26740       -2.43360
C          2.85320        4.01240       -3.71760
H          1.21040        2.86180       -4.62340
H          1.95360        2.77890       -1.66090
H         -0.14900        1.31110       -3.45980
H         -0.29140        1.48440       -1.69970
C          0.85650        2.07460        0.93330
H          1.36960        3.01650        1.21840
H          0.50670        1.54520        1.84310
H         -0.01610        2.39490        0.32630
F          0.12260       -2.32870       -2.04880
H          1.68590       -2.59060       -0.76520
H          2.10460       -2.18440       -2.47460
N          3.76540        4.72260       -3.69580
