17
TSA8_9_Br_CN_NO2
C          1.70460        0.03720       -0.05390
C          1.48200        0.94280       -1.04250
Br         1.81570        0.25470        1.84950
H          1.70850       -1.01100       -0.33550
C          1.42500        0.45600       -2.39140
C          3.02170        4.73180        0.56410
C          2.63660        3.44570        0.54530
C          1.22670        3.06420        0.22090
O          1.23240        2.27650       -0.90380
N          4.34220        5.12680        0.91290
H          2.30070        5.50720        0.32110
H          3.34270        2.65250        0.76560
H          0.60500        3.97270        0.03020
H          0.72980        2.55170        1.06370
N          1.37170        0.09650       -3.48850
O          5.16020        4.32270        1.24630
O          4.64080        6.40660        0.95050
