19
TSA8_9_NO2_CBr3_H
C          2.60570       -1.38950       -0.54620
C          1.50820       -1.84270        0.40250
N          2.12560       -0.31770       -1.40330
H          3.44720       -0.97800        0.05710
C          1.66260       -1.71260        1.90150
C          3.22180       -2.57930       -1.33070
C          2.27100       -3.45820       -2.11030
C          1.66340       -3.08490       -3.23890
O          0.48100       -2.31930       -0.06000
H          3.68970       -3.23770       -0.56670
H          4.03850       -2.22440       -1.99620
H          2.10000       -4.46790       -1.74690
H          1.00510       -3.78160       -3.74830
H          1.82410       -2.10980       -3.67900
O          1.15450       -0.45810       -2.08220
O          2.70420        0.86380       -1.35120
Br         1.92500        0.14530        2.38850
Br         0.09350       -2.35990        2.85210
Br         3.18600       -2.74830        2.50630
