20
TSA8_9_F_Cl_Et
C          3.41540        0.30050        1.62030
C          1.95560        0.56900        1.36230
F          3.95440       -0.31550        0.50450
H          3.92000        1.28060        1.76290
Cl         1.34620        2.21670        1.37150
C          3.63520       -0.54930        2.89760
C          3.05900       -1.94300        2.74290
C          2.07840       -2.39640        3.52980
O          1.18420       -0.34860        1.13050
C          5.12300       -0.61680        3.32540
H          3.11400       -0.02050        3.72860
H          3.44730       -2.59760        1.96870
H          1.65600       -1.77880        4.31630
H          1.69060       -3.39990        3.38700
C          6.07060       -1.31900        2.34720
H          5.18120       -1.15240        4.29850
H          5.49650        0.41770        3.49160
H          5.76730       -2.37330        2.18500
H          7.09560       -1.32050        2.77460
H          6.11630       -0.78860        1.37610
