23
TSA8_9_CCl3_CF3_Me
C          1.01300       -1.69240        0.71590
C          2.11450       -2.77170        0.59600
C          1.45770       -0.19450        0.89610
H          0.54300       -1.65980       -0.29380
C          3.59330       -2.65410        0.91600
C         -0.12500       -2.13470        1.71550
C         -0.92340       -3.30320        1.16400
C         -2.22310       -3.19480        0.86660
O          1.76870       -3.86450        0.17380
C          0.38090       -2.52550        3.11500
H         -0.83240       -1.28910        1.83990
H         -0.44830       -4.26520        1.01010
H         -2.75860       -2.26030        1.00330
H         -2.76390       -4.05240        0.47960
Cl         2.60730        0.27560       -0.39180
Cl         0.05420        0.89090        0.66190
Cl         2.14880        0.24290        2.48550
F          3.98740       -1.43280        1.40250
F          3.91600       -3.60740        1.86460
F          4.31970       -2.91240       -0.23190
H          1.07880       -3.38790        3.05880
H         -0.47890       -2.81790        3.75560
H          0.88760       -1.69300        3.62880
