23
TSA8_9_CCl3_CF3_Me
C          0.76170       -1.68660        1.12540
C          1.74310       -2.90360        0.93530
C          1.35230       -0.31000        1.59960
H          0.35320       -1.47010        0.11350
C          3.07830       -2.64180        0.22160
C         -0.45340       -2.20090        1.98520
C         -0.86210       -3.63820        1.58960
C         -0.28250       -4.01360        0.23350
O          1.13770       -4.02490        0.27490
C         -0.24650       -2.17410        3.51060
H         -1.31490       -1.53530        1.76140
H         -0.43510       -4.38610        2.29670
H         -0.65490       -3.35040       -0.57670
H         -0.62800       -5.04060       -0.00760
Cl         2.33820        0.46530        0.32620
Cl         0.04710        0.87300        1.90990
Cl         2.35920       -0.44070        3.07290
F          3.88140       -1.78670        0.94760
F          3.76340       -3.83790        0.10070
F          2.85740       -2.13350       -1.04590
H          0.62400       -2.80120        3.80030
H         -1.15280       -2.56340        4.02260
H         -0.09800       -1.14290        3.88280
