22
TSA8_9_NO2_CHF2_CHF2
C          2.44730       -1.05400       -1.86910
C          1.35080       -1.44410       -0.83240
N          2.53710        0.39420       -1.94460
H          3.43650       -1.46130       -1.55470
C          1.91930       -2.03760        0.45460
C          2.11360       -1.69930       -3.23860
C          0.64880       -1.44910       -3.64030
C         -0.28370       -1.56590       -2.41980
O          0.34880       -2.28790       -1.38100
C          3.09240       -1.33960       -4.36650
H          2.19430       -2.79870       -3.07810
H          0.46460       -0.47790       -4.14800
H         -1.22500       -2.06820       -2.72280
H         -0.58780       -0.55440       -2.05800
O          3.56120        0.94340       -1.67260
O          1.49090        1.11690       -2.28550
F          0.89730       -2.24240        1.36260
F          2.53960       -3.24550        0.18810
H          2.65660       -1.33650        0.89910
F          3.03780        0.01050       -4.66380
F          4.38470       -1.67300       -4.00110
H          2.82850       -1.91230       -5.28110
