21
TSA8_9_Et_I_CN
C          1.52190       -0.08170        0.07600
C          1.15190       -1.06860        1.03410
C          1.71620       -0.09500       -1.40900
H          1.53540        0.92790        0.47480
I          1.10830       -0.36070        2.99480
C          2.06280       -4.48500       -1.69130
C          1.83920       -3.81790       -0.55710
C          0.57480       -3.06740       -0.29540
O          0.73670       -2.33500        0.87580
C          3.32810       -5.15610       -1.84530
H          1.32160       -4.50700       -2.48260
H          2.62030       -3.82540        0.19350
H         -0.24950       -3.79690       -0.18370
H          0.24720       -2.40580       -1.09850
C          3.13220        0.42750       -1.59240
H          1.04410        0.63210       -1.98600
H          1.60800       -1.07470       -1.88200
H          3.25010        1.43090       -1.12500
H          3.41880        0.39960       -2.64250
H          3.84980       -0.22240       -1.08720
N          4.35650       -5.68730       -1.93350
