18
TSA8_9_OH_CCl3_Cl
C          1.89280       -0.24800        0.01260
C          1.53750       -1.50490       -0.35460
O          2.22770        0.69390       -0.89230
H          1.89400        0.04970        1.05410
C          1.09990       -2.54990        0.66040
C          3.71130       -2.57540       -4.44120
C          2.90390       -2.70110       -3.38410
C          2.32650       -1.49540       -2.70310
O          1.52240       -1.91400       -1.65810
Cl         4.37610       -4.00020       -5.22320
H          3.96770       -1.59450       -4.82970
H          2.66160       -3.69290       -3.01150
H          1.71090       -0.92650       -3.43100
H          3.17390       -0.87120       -2.35280
H          2.46590        1.58790       -0.61060
Cl         2.18740       -3.95520        0.53500
Cl         1.10020       -2.02100        2.37150
Cl        -0.55290       -3.08400        0.26480
