20
TSA8_9_CH2F_CBr3_Br
C          2.52960       -1.38490       -0.83230
C          1.25830       -2.13900       -0.45690
C          2.20020        0.11070       -0.99590
H          3.24840       -1.46460        0.01320
C          1.08410       -2.77730        0.91080
C          3.24550       -1.93240       -2.10440
C          2.39300       -1.87210       -3.35130
C          2.72720       -1.11970       -4.40410
O          0.33060       -2.17620       -1.25280
Br         3.85070       -3.76120       -1.88000
H          4.16820       -1.32840       -2.25300
H          1.48480       -2.46180       -3.40820
H          2.08990       -1.10800       -5.28270
H          3.62650       -0.51270       -4.40110
F          3.35250        0.83810       -1.23680
H          1.73480        0.50110       -0.06620
H          1.48900        0.27310       -1.83360
Br         1.23660       -1.42890        2.29580
Br        -0.66430       -3.60940        1.10140
Br         2.41100       -4.14640        1.24940
