20
TSA8_9_CH2F_CBr3_Br
C          1.72360       -0.13820       -0.02170
C          1.42800       -1.41910       -0.37260
C          1.86850        1.03000       -0.96000
H          1.84180        0.12660        1.02070
C          1.20680       -2.51050        0.66380
C          3.96840       -3.27160       -3.14570
C          2.68140       -2.91320       -3.20350
C          2.20390       -1.58850       -2.68500
O          1.29420       -1.81830       -1.67020
Br         4.52880       -4.98030       -3.79300
H          4.71570       -2.60740       -2.72340
H          1.95230       -3.60110       -3.62320
H          1.70980       -1.03430       -3.51080
H          3.07210       -0.99510       -2.31990
F          3.15040        1.53860       -0.86940
H          1.14730        1.81580       -0.65450
H          1.64240        0.79370       -2.01370
Br         1.41370       -1.99940        2.53440
Br        -0.58790       -3.21080        0.45830
Br         2.45860       -3.95300        0.33130
