19
TSA8_9_Cl_CBr3_NO2
C          2.06310       -0.30550        0.04750
C          1.53000       -1.55380       -0.05690
Cl         2.46930        0.79210       -1.26710
H          2.27140        0.12430        1.01640
C          1.20760       -2.38020        1.18090
C          3.68690       -3.25060       -2.43950
C          3.10310       -2.06830       -2.70360
C          1.61790       -1.89040       -2.53810
O          1.23460       -2.17570       -1.24090
N          5.08730       -3.45920       -2.58190
H          3.07070       -4.08160       -2.10470
H          3.69570       -1.22420       -3.04210
H          1.10920       -2.60750       -3.21590
H          1.27970       -0.88090       -2.84090
Br         1.56790       -1.56070        2.91500
Br        -0.67210       -2.85030        1.15650
Br         2.23770       -4.02020        1.10830
O          5.80860       -2.57830       -2.94260
O          5.59640       -4.63950       -2.30420
