19
TSA8_9_Cl_CBr3_NO2
C          3.06030       -1.64070       -0.55180
C          1.51140       -1.78540       -0.37150
Cl         3.41550        0.05970       -0.98820
H          3.59900       -1.84300        0.39790
C          1.08510       -2.39030        0.97960
C          3.53480       -2.63310       -1.63340
C          2.77240       -2.40850       -2.95330
C          1.32600       -1.96740       -2.67420
O          0.88820       -2.49770       -1.44150
N          4.97230       -2.60860       -1.83720
H          3.24990       -3.64490       -1.26940
H          3.23550       -1.64850       -3.61960
H          0.66750       -2.30570       -3.50030
H          1.24620       -0.85470       -2.65960
Br         1.71450       -1.29990        2.45790
Br        -0.85040       -2.43230        1.09010
Br         1.74340       -4.20370        1.20310
O          5.51570       -1.62920       -2.25160
O          5.68720       -3.68310       -1.58040
