15
TSA8_9_Br_CN_Br
C          1.68580       -0.05390        0.06610
C          1.60610       -1.31040        0.54680
Br         1.87180        0.33470       -1.80700
H          1.52410        0.79980        0.71650
C          1.29140       -1.55920        1.93090
C          0.81880       -4.46520       -2.82160
C          1.07040       -3.24050       -2.35500
C          0.61680       -2.80220       -1.00370
O          1.70420       -2.38720       -0.26210
Br         1.44550       -4.96100       -4.55510
H          0.26270       -5.19000       -2.23280
H          1.61680       -2.53260       -2.96780
H          0.08450       -3.60930       -0.45510
H         -0.10220       -1.97460       -1.14440
N          1.03940       -1.78960        3.03670
