18
TSA8_9_OMe_Br_H
C          1.47040        0.21510       -0.02120
C          1.05340       -0.98760        0.38320
O          1.61950        0.47190       -1.34040
H          1.67140        0.99120        0.71430
Br         0.83140       -1.29590        2.27050
C         -1.05350       -4.20580       -2.24270
C         -0.98720       -3.22030       -1.34260
C          0.12930       -3.12950       -0.34360
O          0.80280       -1.94250       -0.54990
H         -1.87150       -4.23530       -2.95500
H         -0.29880       -4.98570       -2.28030
H         -1.75890       -2.45610       -1.33670
H          0.84270       -3.97230       -0.46720
H         -0.30910       -3.19290        0.67390
C          1.96020        1.71740       -1.81520
H          2.02100        1.67970       -2.92230
H          2.94620        2.02760       -1.40840
H          1.18370        2.45790       -1.52570
