18
TSA8_9_OMe_Br_H
C          0.47110       -0.78730       -1.14630
C          1.16370       -1.19290        0.18100
O          1.39970       -0.22220       -2.05300
H         -0.35510       -0.07750       -0.89910
Br         0.18800       -0.66470        1.78710
C         -0.17560       -2.01080       -1.81790
C         -0.76840       -2.89570       -0.73400
C          0.40910       -3.43330        0.11360
O          1.53390       -2.55750        0.22040
H         -0.93200       -1.68500       -2.56340
H          0.59360       -2.61240       -2.35340
H         -1.46440       -2.28060       -0.12250
H          0.77640       -4.33510       -0.41960
H          0.05640       -3.76280        1.11380
C          1.59740        1.14450       -1.76240
H          2.36530        1.54160       -2.45730
H          1.98610        1.28940       -0.73010
H          0.66720        1.73010       -1.93350
