20
TSA8_9_CH2F_Me_F
C          1.70420        0.01860        0.10410
C          1.44060        0.07640        1.43620
C          1.83110       -1.19870       -0.76590
H          1.80800        0.95480       -0.43780
C          1.24800        1.42480        2.07560
C          4.22490       -1.91140        3.82470
C          3.58300       -1.61560        2.69080
C          2.17630       -2.07900        2.42070
O          1.32650       -0.99170        2.28030
F          5.49500       -1.47080        4.01920
H          3.74750       -2.50240        4.60060
H          4.09050       -1.02310        1.93500
H          1.79740       -2.69550        3.26390
H          2.18290       -2.74270        1.54760
F          3.11500       -1.27660       -1.27080
H          1.11850       -1.09230       -1.61010
H          1.55970       -2.14280       -0.28230
H          2.00480        1.56110        2.87630
H          0.23480        1.47350        2.52600
H          1.34830        2.26380        1.35390
