20
TSA8_9_CH2F_Me_F
C          2.72940       -0.23170        1.11120
C          1.32050       -0.24050        1.79850
C          2.65900       -0.91360       -0.26690
H          3.05710        0.81420        0.91490
C          0.93160        1.15470        2.28260
C          3.74100       -0.89860        2.05840
C          3.29070       -2.31570        2.44110
C          1.75880       -2.39350        2.55810
O          1.23050       -1.13430        2.90920
F          5.02310       -0.91420        1.53840
H          3.75600       -0.29270        2.99130
H          3.62320       -3.09460        1.72090
H          1.48820       -3.15260        3.32020
H          1.29110       -2.74610        1.61130
F          3.88630       -0.84410       -0.90190
H          1.91300       -0.38740       -0.89970
H          2.35850       -1.97690       -0.19860
H          1.64880        1.50860        3.05410
H         -0.08720        1.12610        2.72240
H          0.92560        1.86740        1.43120
