20
TSA8_9_CH2F_CH2F_Cl
C          2.69680       -0.70720       -1.24780
C          1.39260       -1.47940       -1.29080
C          2.43380        0.71610       -0.73280
H          3.36790       -1.18420       -0.49820
C          1.19880       -2.68220       -0.41260
C          3.45200       -0.76860       -2.61040
C          2.69980       -0.21980       -3.80580
C          2.43710        1.07980       -3.97540
O          0.49130       -1.12060       -2.03540
Cl         3.87710       -2.47490       -2.95140
H          4.41950       -0.22770       -2.52560
H          2.38330       -0.90450       -4.58790
H          1.90680        1.41070       -4.86260
H          2.75790        1.82590       -3.25910
F          3.61800        1.42700       -0.65150
H          1.98800        0.66340        0.28370
H          1.71410        1.26090       -1.37440
F         -0.05660       -3.23300       -0.60320
H          1.30370       -2.38420        0.65150
H          1.96690       -3.44610       -0.65350
