19
TSA8_9_NH2_CHF2_Br
C          2.87410        0.55730       -1.09390
C          1.42400        0.37730       -1.50520
N          3.00290        0.48440        0.36380
H          3.44070       -0.29610       -1.52980
C          1.03460       -0.76900       -2.39790
C          3.56450        1.83600       -1.64640
C          3.05550        3.15410       -1.10120
C          1.87640        3.68340       -1.43820
O          0.55930        1.12630       -1.07780
Br         5.46510        1.71470       -1.23350
H          3.49860        1.85400       -2.75610
H          3.69270        3.72830       -0.43410
H          1.21080        3.19220       -2.13660
H          1.57920        4.64290       -1.02650
H          2.45260        1.25110        0.81570
H          2.63110       -0.43300        0.70210
F         -0.33050       -0.77540       -2.62440
F          1.69280       -0.65860       -3.60870
H          1.32140       -1.72600       -1.91340
