19
TSA8_9_NH2_CHF2_Br
C          1.87020       -0.11440       -0.23170
C          1.45850        0.23920       -1.48300
N          2.31400        0.75220        0.80240
H          1.85140       -1.17050        0.02620
C          1.00020       -0.85430       -2.41400
C          4.21030        3.28630       -2.61380
C          3.48990        2.57450       -1.74010
C          1.98870        2.69330       -1.66660
O          1.40550        1.49620       -2.02290
Br         6.10850        3.07930       -2.69920
H          3.73380        3.98300       -3.29680
H          3.99910        1.87950       -1.08080
H          1.63800        3.45820       -2.39210
H          1.62930        3.05140       -0.68550
H          2.36900        1.76780        0.73130
H          2.58400        0.33780        1.70550
F         -0.31010       -0.61930       -2.78940
F          1.79960       -0.85200       -3.54130
H          1.05500       -1.86310       -1.95140
