19
TSA8_9_CH2F_Br_NO2
C          1.57960       -1.17060        1.79580
C          1.30910        0.27970        1.45800
C          1.40600       -2.03300        0.52990
H          2.64500       -1.24750        2.10680
Br         2.69950        1.58090        1.63240
C          0.71560       -1.61750        3.01690
C         -0.77310       -1.57890        2.73400
C         -1.60120       -0.77390        3.40730
O          0.21060        0.63720        1.06110
N          1.08470       -2.94320        3.48670
H          0.94850       -0.89600        3.83490
H         -1.18600       -2.22580        1.96580
H         -1.23470       -0.11140        4.18520
H         -2.66220       -0.77450        3.17910
F          2.23620       -1.56690       -0.47500
H          0.35860       -1.99970        0.16450
H          1.68370       -3.08680        0.72210
O          0.87770       -3.91240        2.82090
O          1.59040       -3.08900        4.69280
