18
TSA8_9_OH_H_Me
C          1.78620        0.00650       -0.18650
C          1.22790        0.23750       -1.38920
O          2.42970        0.95960        0.51470
H          1.70270       -0.98900        0.24040
H          0.70980       -0.59000       -1.86300
C          4.10380        2.97400       -3.05480
C          3.44380        2.29800       -2.10210
C          1.98730        2.56060       -1.81070
O          1.23380        1.42730       -2.05870
C          5.54580        2.69370       -3.34340
H          3.59660        3.73760       -3.63800
H          3.96630        1.53660       -1.53080
H          1.60950        3.36760       -2.47400
H          1.84210        2.91420       -0.76960
H          2.80450        0.76250        1.38460
H          5.66930        1.63580       -3.65820
H          6.15920        2.88340       -2.43750
H          5.89900        3.35470       -4.16250
