18
TSA8_9_OH_H_Me
C          3.11390        0.69590       -1.39390
C          1.56640        0.56040       -1.49400
O          3.49120        1.16440       -0.12420
H          3.58560       -0.29930       -1.56510
H          1.36000       -0.18230       -2.29430
C          3.56240        1.69010       -2.47340
C          2.89570        3.06130       -2.23150
C          1.55600        2.91510       -1.48610
O          0.87460        1.74830       -1.89000
C          5.08510        1.81980       -2.56940
H          3.19130        1.29920       -3.44750
H          3.52240        3.75400       -1.62770
H          0.93110        3.81020       -1.68420
H          1.70740        2.88880       -0.38320
H          3.31970        0.42330        0.51370
H          5.53780        0.82930       -2.78820
H          5.50850        2.20390       -1.61680
H          5.35570        2.51830       -3.38970
