22
TSA8_9_OMe_NH2_NH2
C          0.67470       -1.47530       -0.19700
C          1.53000       -0.91570        0.92430
O          1.48350       -1.74080       -1.33120
H         -0.15130       -0.76690       -0.45010
N          1.26120        0.29840        1.45810
C         -0.00130       -2.79160        0.24460
C         -0.93240       -2.54810        1.41500
C         -0.75620       -3.14000        2.59990
O          2.47430       -1.56620        1.34780
N         -0.75490       -3.36590       -0.87150
H          0.79580       -3.51750        0.52730
H         -1.77070       -1.86870        1.28760
H          0.06950       -3.82320        2.77030
H         -1.44600       -2.93750        3.41290
C          1.72100       -0.55410       -2.05950
H          2.26630       -0.81870       -2.98850
H          2.36570        0.14530       -1.48400
H          0.77350       -0.06570       -2.37840
H          1.84620        0.67530        2.21860
H          0.47100        0.86370        1.11560
H         -1.53150       -2.72500       -1.15450
H         -1.16630       -4.28270       -0.57930
