22
TSA8_9_OMe_NH2_NH2
C          0.57730       -1.76740       -0.20100
C          1.43270       -1.40250        1.05750
O          1.34160       -1.63360       -1.38940
H         -0.37490       -1.18460       -0.22280
N          1.25740       -0.00830        1.46420
C          0.15980       -3.24190       -0.07480
C         -0.62620       -3.47540        1.23130
C         -0.12610       -2.54910        2.34720
O          1.24640       -2.27010        2.17630
N         -0.61150       -3.68310       -1.23760
H          1.09560       -3.84250       -0.01880
H         -1.72060       -3.30580        1.12870
H         -0.30290       -3.02590        3.33320
H         -0.70660       -1.59740        2.35580
C          1.33300       -0.31280       -1.88400
H          1.57160       -0.35080       -2.96670
H          2.13300        0.28440       -1.40210
H          0.33980        0.18260       -1.80690
H          1.91510        0.18880        2.25150
H          1.50540        0.63530        0.68450
H         -1.50390       -3.13970       -1.30510
H         -0.84660       -4.69690       -1.13300
