18
TSA8_9_CH2F_CN_F
C          1.55690       -0.48140       -1.52690
C          2.27240       -1.65130       -0.89890
C          2.08090        0.84840       -0.94920
H          0.49490       -0.60550       -1.22960
C          1.94090       -2.00220        0.46260
C          1.60380       -0.49680       -3.07890
C          0.50080        0.36210       -3.64800
C         -0.78450        0.03280       -3.45010
O          2.95350       -2.41630       -1.56340
F          2.83860       -0.07100       -3.54230
H          1.42650       -1.52470       -3.46420
H          0.73920        1.24490       -4.23210
H         -1.05140       -0.85860       -2.88550
H         -1.58450        0.64090       -3.85370
F          3.43910        0.98640       -1.18910
H          1.91800        0.88240        0.14810
H          1.54870        1.70980       -1.40420
N          1.65320       -2.30010        1.54090
