18
TSA8_9_CH2F_CN_F
C          2.14310       -0.50040       -1.74550
C          1.00970       -1.31280       -1.07040
C          2.09070        0.95650       -1.24000
H          3.13640       -0.93880       -1.47590
C          1.46220       -2.12360        0.07300
C          1.96790       -0.58770       -3.27650
C          0.50160       -0.32840       -3.67910
C         -0.46480       -1.09140       -2.74120
O          0.23390       -2.05020       -1.97390
F          2.83320        0.24690       -3.96410
H          2.18660       -1.63730       -3.58340
H          0.22860        0.75000       -3.67260
H         -1.25990       -1.57940       -3.34400
H         -1.00360       -0.37890       -2.06740
F          3.36760        1.48590       -1.16230
H          1.64270        1.00740       -0.22560
H          1.47420        1.59970       -1.90160
N          1.82000       -2.76380        0.97280
