15
TSA8_9_OH_Cl_Cl
C          1.61640       -1.97140       -0.20010
C          1.27230       -0.87630        0.77810
O          1.20390       -1.58030       -1.48610
H          2.72570       -2.09230       -0.17400
Cl         2.54090       -0.08210        1.69800
C          0.98120       -3.32260        0.19320
C         -0.52700       -3.27930        0.15630
C         -1.26780       -3.51740        1.24290
O          0.11520       -0.51790        0.93040
Cl         1.53450       -4.60340       -0.92020
H          1.34070       -3.59400        1.21090
H         -1.02630       -3.04890       -0.78050
H         -0.80720       -3.75120        2.19780
H         -2.35030       -3.47780        1.18020
H          1.87700       -1.92560       -2.12920
