15
TSA8_9_OH_Cl_Cl
C          2.03390       -0.03740        0.01910
C          1.29620       -0.87070        0.76680
O          2.25350       -0.25560       -1.29800
H          2.47240        0.84420        0.47610
Cl         1.06600       -0.49340        2.47750
C         -0.19370       -5.24270        0.15280
C         -0.49060       -3.95490       -0.05390
C         -0.04720       -2.87630        0.89030
O          0.74170       -1.97660        0.20660
Cl        -0.73440       -6.47020       -0.98060
H          0.38350       -5.55140        1.01860
H         -1.06940       -3.67240       -0.92860
H          0.52700       -3.30380        1.74240
H         -0.94860       -2.36100        1.28620
H          1.89350       -1.01750       -1.77410
