15
TSA8_9_OH_Cl_Cl
C          1.71670       -2.25490       -0.20170
C          1.10710       -1.18650        0.73120
O          1.49990       -1.92630       -1.55530
H          2.81670       -2.27760       -0.04810
Cl         1.71350       -1.27040        2.41700
C          1.12000       -3.62920        0.14330
C         -0.40600       -3.54850        0.11260
C         -0.86260       -2.41860        1.04670
O         -0.31330       -1.16370        0.66700
Cl         1.70820       -4.89460       -0.96870
H          1.42930       -3.91170        1.17340
H         -0.76940       -3.35040       -0.91860
H         -0.61950       -2.65740        2.10500
H         -1.96870       -2.34980        0.98950
H          0.56010       -1.63300       -1.67250
