23
TSA8_9_Et_I_Me
C          1.79570        0.26870       -0.05380
C          1.35670        1.51160        0.27090
C          1.89250       -0.98720        0.77840
H          2.11640        0.13310       -1.08290
I          1.37700        2.94340       -1.28420
C          2.53850        2.03220        4.42840
C          2.20600        1.34780        3.32350
C          0.82140        1.43520        2.72940
O          0.86770        1.97340        1.46100
C          3.91670        1.94830        5.00640
H          1.80770        2.66590        4.92380
H          2.95170        0.72440        2.84340
H          0.19940        2.11490        3.35070
H          0.28240        0.46890        2.73470
C          3.32370       -1.51560        0.76480
H          1.23100       -1.75400        0.32240
H          1.58450       -0.87250        1.82150
H          3.64920       -1.72250       -0.27810
H          3.37730       -2.46280        1.34260
H          4.01580       -0.77780        1.22050
H          4.66170        2.30250        4.26230
H          4.14650        0.90070        5.29060
H          3.98210        2.58930        5.91140
