17
TSA8_9_Br_Cl_CBr3
C          2.05810        1.67800       -1.58580
C          0.85300        1.21140       -2.35360
Br         1.77220        1.15560        0.27290
H          2.95140        1.12300       -1.94310
Cl         1.02310        0.00160       -3.61710
C          2.32550        3.21180       -1.70000
C          3.50010        3.55300       -0.79940
C          3.37890        4.38150        0.24340
O         -0.25580        1.65240       -2.09200
C          2.63050        3.72630       -3.14600
H          1.42050        3.74940       -1.33740
H          4.47150        3.11110       -1.00230
H          2.42810        4.84580        0.48580
H          4.24130        4.60000        0.86470
Br         3.03720        5.63040       -3.11340
Br         4.15080        2.81850       -3.95540
Br         1.12530        3.57260       -4.36630
