15
TSA8_9_CN_H_I
C          2.17230       -1.56690        0.46760
C          2.66890       -0.63300        1.53440
C          2.68050       -1.25310       -0.88130
H          1.11350       -1.25410        0.43790
H          2.50820        0.43370        1.38990
C          2.26020       -3.08830        0.79320
C          0.99070       -3.68950        0.27300
C         -0.14760       -3.39480        0.91620
O          3.06070       -1.03560        2.61850
I          3.98860       -4.16310        0.06870
H          2.27840       -3.28790        1.88840
H          0.97960       -4.28800       -0.63130
H         -0.11250       -2.78450        1.82150
H         -1.10460       -3.73280        0.55410
N          3.04350       -0.99620       -1.94430
