15
TSA8_9_CN_H_I
C          2.60420       -1.56790        0.41040
C          1.59320       -0.87180        1.34940
C          2.06140       -1.41460       -0.95100
H          3.58310       -1.04380        0.45200
H          1.83020        0.15050        1.71250
C          2.70110       -3.05770        0.86280
C          1.30390       -3.66100        0.83620
C          0.32820       -2.75620        1.61000
O          1.01130       -1.73140        2.31340
I          4.03780       -4.43960       -0.07860
H          3.05580       -3.07230        1.91920
H          0.96510       -3.76610       -0.22260
H         -0.19790       -3.40920        2.33170
H         -0.44050       -2.31480        0.93460
N          1.61110       -1.30870       -2.01240
