26
TSA8_9_Et_Me_Me
C          2.50640       -1.06980       -1.01380
C          1.30960       -1.51820       -0.19330
C          2.51860        0.48680       -1.00010
H          3.41620       -1.42610       -0.48030
C          1.51180       -2.29430        1.07390
C          2.46930       -1.79560       -2.40000
C          1.39450       -1.24330       -3.31010
C          0.36260       -1.98600       -3.72230
O          0.17390       -1.24660       -0.55570
C          3.81780       -1.81870       -3.13550
H          2.26700       -2.87050       -2.18180
H          1.46320       -0.21250       -3.64450
H          0.25550       -3.02140       -3.41400
H         -0.38750       -1.55460       -4.37700
C          3.72030        1.16350       -1.65020
H          2.52640        0.80020        0.06810
H          1.59100        0.89340       -1.45880
H          4.66840        0.76390       -1.23240
H          3.67420        2.25390       -1.44420
H          3.69260        1.06170       -2.74800
H          2.04760       -3.23990        0.84920
H          0.53600       -2.53850        1.54580
H          2.11350       -1.69260        1.78660
H          4.60180       -2.25360       -2.47970
H          4.15550       -0.83290       -3.48530
H          3.73370       -2.46340       -4.03690
