26
TSA8_9_Et_Me_Me
C          1.88080       -0.22820        0.05290
C          1.44170       -1.52000       -0.01220
C          1.93490        0.84980       -1.00460
H          2.24070        0.12040        1.01790
C          1.49250       -2.34690        1.24540
C          2.59860       -2.78080       -3.99600
C          2.24970       -1.90270       -3.04430
C          0.86720       -1.89360       -2.44190
O          0.92720       -2.18110       -1.09450
C          3.98070       -2.78370       -4.57220
H          1.88160       -3.51030       -4.36230
H          2.98510       -1.18910       -2.69390
H          0.25360       -2.68770       -2.91850
H          0.31300       -0.95540       -2.62710
C          3.36010        1.37590       -1.15070
H          1.28580        1.68790       -0.67260
H          1.58550        0.54700       -1.99420
H          3.72720        1.77480       -0.18050
H          3.37890        2.19760       -1.89770
H          4.04260        0.56930       -1.48970
H          2.12810       -3.23970        1.06840
H          0.46650       -2.68310        1.50370
H          1.90610       -1.79570        2.11700
H          4.72410       -2.97430       -3.76940
H          4.19560       -1.80420       -5.04900
H          4.06620       -3.58360       -5.33730
