20
TSA8_9_CBr3_CCl3_I
C          1.65460        0.00880       -1.86730
C          0.75520       -1.00000       -1.09580
C          1.55920        1.41080       -1.15990
H          2.71880       -0.28630       -1.75030
C          1.23890       -2.45760       -0.87240
C          1.30420       -0.11750       -3.38480
C         -0.19740       -0.02670       -3.63050
C         -0.92470       -1.03840       -2.73750
O         -0.63420       -0.84690       -1.36420
I          2.35600        1.10100       -4.80140
H          1.60070       -1.13430       -3.70650
H         -0.57070        0.99880       -3.46180
H         -0.70450       -2.07790       -3.04880
H         -2.01580       -0.90600       -2.88850
Br         2.06670        1.20970        0.70980
Br         2.82370        2.71560       -1.83930
Br        -0.19470        2.25010       -1.13520
Cl         1.46230       -3.41720       -2.35910
Cl         2.79610       -2.44160       -0.00580
Cl         0.07160       -3.31090        0.16890
