20
TSA8_9_CF3_CCl3_I
C          1.74840       -0.11010        0.03070
C          1.44200       -1.43440        0.13440
C          1.88760        0.71220       -1.22970
H          1.89340        0.47460        0.92890
C          1.23860       -2.10980        1.48520
C          3.57760       -4.45270       -2.66830
C          2.63660       -3.95870       -1.85960
C          2.28870       -2.50040       -1.88290
O          1.29730       -2.24710       -0.94970
I          4.06380       -6.50550       -2.61530
H          4.10970       -3.80720       -3.36080
H          2.12090       -4.62390       -1.17300
H          1.92010       -2.24340       -2.89830
H          3.20740       -1.91240       -1.65830
F          3.19340        1.14920       -1.34500
F          1.52840        0.04070       -2.37690
F          1.05990        1.81400       -1.12070
Cl         2.41850       -3.43320        1.65860
Cl         1.40810       -1.05520        2.92250
Cl        -0.39890       -2.81020        1.53280
