20
TSA8_9_CF3_CCl3_I
C          2.74980       -1.35470       -0.57960
C          1.27730       -1.71300       -0.23090
C          2.79240        0.05740       -1.20690
H          3.34570       -1.24370        0.35030
C          0.98550       -2.45260        1.09760
C          3.41980       -2.41880       -1.49370
C          2.42130       -3.42570       -2.06210
C          1.11380       -2.72750       -2.42080
O          0.44410       -2.12380       -1.31690
I          4.99570       -3.47880       -0.49390
H          3.91770       -1.91140       -2.34750
H          2.18860       -4.22560       -1.33880
H          0.43880       -3.49750       -2.84890
H          1.28930       -1.97570       -3.21590
F          4.10540        0.42800       -1.44210
F          2.09580        0.11490       -2.39840
F          2.23690        0.97170       -0.32840
Cl         1.64990       -4.10030        1.18670
Cl         1.64270       -1.52100        2.46870
Cl        -0.77740       -2.55670        1.34100
