18
TSA8_9_CN_CHF2_Br
C          2.89190       -1.11650       -0.75390
C          1.50670       -1.55650       -0.30860
C          2.79050        0.19260       -1.42440
H          3.55650       -0.99820        0.13050
C          1.28320       -2.31810        0.96350
C          3.53410       -2.19030       -1.67110
C          2.62380       -2.53020       -2.82240
C          1.81510       -3.59230       -2.74910
O          0.54660       -1.36250       -1.04230
Br         5.29270       -1.68120       -2.33300
H          3.69580       -3.09780       -1.04810
H          2.56550       -1.86940       -3.68050
H          1.81640       -4.22930       -1.86780
H          1.11580       -3.80600       -3.54740
N          2.70760        1.22350       -1.94370
F          1.98960       -3.50690        0.93490
F          1.68220       -1.56570        2.04910
H          0.20180       -2.56100        1.06820
