18
TSA8_9_CN_CHF2_Br
C          2.87750       -1.01480       -0.78260
C          1.47460       -1.56610       -0.44870
C          2.62870        0.23520       -1.51650
H          3.43850       -0.74610        0.13890
C          1.26320       -2.36070        0.84180
C          3.67670       -2.05250       -1.60640
C          2.84420       -2.52550       -2.79050
C          1.53190       -3.08580       -2.24450
O          0.77810       -2.08700       -1.57550
Br         5.40440       -1.41380       -2.22650
H          3.88530       -2.93860       -0.96850
H          2.64090       -1.68660       -3.49520
H          1.72830       -3.95800       -1.58490
H          0.93600       -3.46250       -3.10030
N          2.41280        1.23370       -2.05980
F          1.93950       -3.56390        0.83450
F          1.67630       -1.60510        1.92420
H          0.17360       -2.54890        0.95270
