20
TSA8_9_NO2_OMe_F
C          3.15060       -1.05460       -0.35210
C          2.29480       -1.77250        0.67340
N          2.41310        0.00890       -1.02600
H          3.97450       -0.58570        0.23130
O          2.67590       -1.73230        1.97680
C          3.83790       -1.99750       -1.38070
C          2.93930       -2.56130       -2.46050
C          2.01340       -3.50140       -2.25730
O          1.25970       -2.33550        0.34900
F          4.82290       -1.26230       -2.02040
H          4.35770       -2.82680       -0.85320
H          3.08270       -2.20680       -3.47820
H          1.84480       -3.94130       -1.28500
H          1.42470       -3.86250       -3.09500
O          2.98170        0.74400       -1.77520
O          1.12930        0.19740       -0.79860
C          1.99020       -2.34390        3.00410
H          2.51160       -2.13640        3.96150
H          1.96210       -3.44250        2.84280
H          0.95550       -1.94450        3.06730
