23
TSA8_9_CCl3_CHF2_CHF2
C          0.71840       -1.67840        0.85730
C          1.75590       -2.82110        0.55550
C          1.22580       -0.34880        1.52170
H          0.35030       -1.34840       -0.13980
C          3.10980       -2.39830       -0.02850
C         -0.51460       -2.34620        1.57590
C         -0.82960       -3.73760        0.97630
C         -0.18780       -3.89630       -0.39530
O          1.23060       -3.83800       -0.31100
C         -0.40540       -2.49170        3.11010
H         -1.38960       -1.69030        1.37660
H         -0.38470       -4.55180        1.59190
H         -0.57400       -3.14840       -1.12030
H         -0.46850       -4.89770       -0.78370
Cl         2.24650        0.59900        0.40000
Cl        -0.14330        0.74180        1.88900
Cl         2.15800       -0.60890        3.02580
F          3.84600       -1.67570        0.88840
F          3.84320       -3.52930       -0.34050
H          2.96290       -1.81290       -0.96030
F         -1.55840       -3.07100        3.61360
F          0.68050       -3.27730        3.45660
H         -0.30570       -1.50290        3.59550
