20
TSA8_9_NO2_NH2_NO2
C          1.26310       -1.91580        0.22480
C          1.96250       -0.90150        1.20650
N          1.92540       -2.01610       -1.06720
H          0.22260       -1.55300        0.05550
N          3.42160       -0.92720        1.12250
C          1.16900       -3.27920        0.93110
C          0.35560       -3.13020        2.23600
C          0.34400       -1.67510        2.74240
O          1.60780       -1.06910        2.58250
N          0.59400       -4.30010        0.07510
H          2.20140       -3.58290        1.21150
H         -0.70850       -3.43190        2.12200
H          0.05450       -1.66740        3.81350
H         -0.42630       -1.06970        2.21210
O          1.34110       -1.70220       -2.06000
O          3.12760       -2.54280       -1.17030
H          3.78890       -1.88960        1.29830
H          3.73770       -0.56810        0.19430
O         -0.51190       -4.17670       -0.36010
O          1.29940       -5.36470       -0.24090
