18
TSA8_9_H_CN_CCl3
C          0.55020       -2.36520        0.72370
C          1.63060       -1.29410        1.07900
H          0.96720       -3.19140        0.10820
H         -0.21790       -1.85140        0.10270
C          2.97150       -1.62030        0.56720
C         -0.09710       -2.86990        2.03620
C         -0.63750       -1.62660        2.75840
C          0.47470       -0.58230        2.94240
O          1.72310       -1.05250        2.47280
C         -1.18030       -3.97330        1.94130
H          0.71930       -3.31670        2.64620
H         -1.46190       -1.16980        2.16250
H          0.55360       -0.40220        4.03310
H          0.21470        0.39030        2.46760
N          4.03510       -1.85470        0.17330
Cl        -1.66960       -4.43320        3.60170
Cl        -2.64500       -3.46460        1.05630
Cl        -0.53110       -5.44260        1.16810
