22
TSA8_9_CCl3_NO2_CHF2
C          1.66020        0.01520       -0.14170
C          1.35280        0.16760       -1.45700
C          1.84460        1.09030        0.91410
H          1.78860       -0.99640        0.23090
N          1.14610       -0.98360       -2.28040
C          2.70890        3.00360       -4.63660
C          2.74850        2.01600       -3.73170
C          2.32050        2.21080       -2.30600
O          1.23960        1.38270       -2.05180
C          3.13730        2.76490       -6.05420
H          2.35670        3.99200       -4.35560
H          3.09560        1.02980       -4.02670
H          2.02260        3.26240       -2.10940
H          3.18430        1.96470       -1.65130
Cl         1.13960        2.68700        0.53770
Cl         1.03970        0.54090        2.40650
Cl         3.57820        1.26920        1.26830
O          0.89500       -0.84500       -3.43880
O          1.19560       -2.19940       -1.77700
F          4.46630        2.38340       -6.08790
F          2.35920        1.77110       -6.62140
H          3.01500        3.69710       -6.64330
