22
TSA8_9_NH2_H_Et
C          2.99680       -1.13380        0.63240
C          1.44440       -1.28140        0.59370
N          3.49790       -0.66570       -0.66270
H          3.26290       -0.36480        1.39150
H          1.02910       -0.80580        1.50790
C          3.61110       -2.48910        1.04890
C          3.15820       -3.60350        0.08610
C          1.69880       -3.38980       -0.35580
O          0.99230       -2.63480        0.60530
C          5.13330       -2.49240        1.33590
H          3.13850       -2.72610        2.02990
H          3.77380       -3.70410       -0.83200
H          1.63470       -2.88560       -1.34710
H          1.21700       -4.37860       -0.49570
H          3.09530        0.27890       -0.86370
H          3.22430       -1.30590       -1.43930
C          6.05210       -2.22870        0.14140
H          5.40140       -3.48730        1.75530
H          5.34790       -1.73020        2.11650
H          5.91550       -2.99360       -0.64900
H          7.10700       -2.27990        0.48320
H          5.88950       -1.21760       -0.28090
