21
TSA8_9_Et_OH_Br
C          1.81580        0.25340        0.19550
C          1.39860        1.13690        1.14820
C          2.04090       -1.23960        0.25560
H          2.00320        0.66710       -0.79260
O          1.25490        2.43200        0.77880
C          3.29690       -0.28330        4.74820
C          2.76580       -0.40420        3.52650
C          1.29110       -0.21480        3.27770
O          1.08110        0.86950        2.45180
Br         5.17700       -0.50860        5.01130
H          2.67780       -0.04880        5.60880
H          3.42000       -0.63110        2.69520
H          0.78040        0.00290        4.24010
H          0.79160       -1.12150        2.89150
C          3.46690       -1.58190       -0.16720
H          1.34100       -1.71670       -0.46330
H          1.86120       -1.69740        1.23040
H          3.66980       -1.20300       -1.19170
H          3.59870       -2.68480       -0.16800
H          4.20200       -1.13570        0.53400
H          1.44230        2.75930       -0.11280
