21
TSA8_9_Et_OH_Br
C          2.56950        0.24650        1.29380
C          1.15750        0.90260        1.44890
C          2.42190       -1.09470        0.51980
H          3.19160        0.90940        0.65150
O          1.22740        2.25020        1.09000
C          3.18680        0.17200        2.70840
C          2.30120       -0.65980        3.64450
C          0.81070       -0.45620        3.31750
O          0.59350        0.82020        2.75980
Br         5.05440       -0.34690        2.83420
H          3.17450        1.21340        3.09980
H          2.52010       -1.74830        3.61270
H          0.21680       -0.57500        4.24720
H          0.42300       -1.23450        2.62470
C          3.73740       -1.72080        0.06120
H          1.84680       -0.87860       -0.40730
H          1.85420       -1.85040        1.09560
H          4.31850       -0.99650       -0.54780
H          3.51710       -2.60960       -0.56730
H          4.34330       -2.07410        0.91410
H          0.71540        2.31110        0.24420
