24
TSA8_9_CHF2_OMe_CBr3
C          1.99400        0.03950       -0.01510
C          1.87950       -0.96210       -0.93260
C          1.82740        1.54400       -0.04960
H          2.25880       -0.29440        0.98620
O          2.10230       -2.21190       -0.44680
C          3.66360        0.60230       -4.48200
C          2.98010        0.69980       -3.32970
C          1.58330        0.15090       -3.18830
O          1.57670       -0.87180       -2.26670
C          5.07380        1.11340       -4.61640
H          3.19630        0.13010       -5.34180
H          3.45010        1.16400       -2.46860
H          1.25210       -0.28100       -4.15630
H          0.82200        0.91240       -2.95810
F          3.01920        2.13230        0.32910
F          1.43270        2.09340       -1.23820
H          1.05540        1.81270        0.70130
C          2.12560       -3.34580       -1.23040
H          2.33450       -4.22720       -0.59050
H          2.92890       -3.26280       -1.99470
H          1.14480       -3.48790       -1.73190
Br         5.72630        0.78400       -6.41160
Br         5.14850        3.02190       -4.27960
Br         6.24490        0.19590       -3.37020
