24
TSA8_9_CHF2_OMe_CBr3
C          2.97710       -0.04130       -1.55920
C          1.63410       -0.82350       -1.58050
C          2.80810        1.16480       -0.61890
H          3.76240       -0.68740       -1.11330
O          1.53510       -1.87410       -0.63970
C          3.38600        0.25130       -3.04130
C          2.19780        0.80060       -3.86310
C          0.87840        0.08970       -3.50770
O          1.13400       -1.14430       -2.86850
C          4.70310        1.03150       -3.31510
H          3.56810       -0.76790       -3.45420
H          2.04710        1.89860       -3.79830
H          0.28690       -0.06980       -4.43220
H          0.24570        0.74040       -2.85580
F          4.01760        1.78430       -0.37730
F          1.90260        2.07920       -1.12680
H          2.43400        0.80860        0.36510
C          2.12820       -3.04650       -1.15740
H          2.25940       -3.76870       -0.32600
H          3.14140       -2.86500       -1.58000
H          1.46390       -3.52020       -1.91210
Br         5.16190        0.87120       -5.19770
Br         4.60020        2.94150       -2.95080
Br         6.19320        0.27810       -2.32180
