20
TSA8_9_CF3_CHF2_F
C          2.47960        0.95510       -1.06080
C          1.16090        0.85810       -1.80590
C          2.24200        0.92170        0.46370
H          3.08010        0.04540       -1.28870
C          0.86700       -0.33140       -2.67660
C          3.33510        2.14580       -1.58500
C          2.72260        3.52300       -1.46330
C          2.58660        4.16950       -0.30270
O          0.32920        1.74730       -1.69730
F          3.57940        1.91820       -2.92990
H          4.32510        2.15320       -1.07930
H          2.41540        4.03380       -2.37150
H          2.15590        5.16560       -0.28830
H          2.91760        3.73390        0.63240
F          3.44690        1.03140        1.13520
F          1.39070        1.92790        0.87860
F          1.66310       -0.28830        0.80580
F         -0.39040       -0.22170       -3.24430
F          1.81000       -0.41480       -3.68410
H          0.90400       -1.25540       -2.06350
