20
TSA8_9_CF3_CHF2_F
C          2.66510        0.82380       -0.72390
C          1.22290        1.05470       -1.23440
C          2.68100        0.70830        0.82110
H          3.02440       -0.17800       -1.05060
C          0.93390        0.53930       -2.65200
C          3.63520        1.90000       -1.27550
C          2.92170        3.18810       -1.71160
C          1.63610        3.42130       -0.92120
O          0.68420        2.35980       -1.00540
F          4.30470        1.40420       -2.38230
H          4.40740        2.12910       -0.51140
H          2.63070        3.12970       -2.77830
H          1.16350        4.33710       -1.33410
H          1.86940        3.65410        0.13290
F          3.96130        0.40580        1.25190
F          2.27020        1.85920        1.45780
F          1.84380       -0.32280        1.21060
F         -0.41930        0.64800       -2.91310
F          1.63490        1.22580       -3.62080
H          1.21390       -0.53310       -2.71160
