24
TSA8_9_NO2_NH2_Et
C          2.79260        0.81090        0.83190
C          2.33380        1.52800       -0.43460
N          1.67350        0.18320        1.52200
H          3.46810       -0.01770        0.53860
N          2.78160        1.14050       -1.65230
C          3.58030        1.77250        1.78950
C          2.76810        2.99570        2.19530
C          1.63420        2.92860        2.90070
O          1.54690        2.46100       -0.35700
C          4.91800        2.25440        1.16620
H          3.84690        1.22440        2.72070
H          3.12460        3.98420        1.91540
H          1.10760        3.84140        3.15950
H          1.22100        1.98620        3.23530
O          1.87950       -0.50030        2.47970
O          0.44090        0.29480        1.07110
H          2.46210        1.62800       -2.50210
H          3.44290        0.35760       -1.74970
C          5.93530        1.13120        0.94450
H          5.39440        2.97050        1.87330
H          4.73590        2.78930        0.20910
H          6.14420        0.61010        1.90350
H          6.88560        1.56570        0.56890
H          5.58600        0.39600        0.19400
