24
TSA8_9_NO2_NH2_Et
C          2.98440        0.84010        0.70880
C          1.76800        1.39800       -0.07190
N          2.56610       -0.31480        1.48520
H          3.71770        0.50470       -0.05770
N          2.15830        2.26220       -1.18480
C          3.62740        1.91270        1.64830
C          2.88880        3.24990        1.52570
C          1.37470        3.00110        1.66350
O          0.81590        2.04480        0.76070
C          5.13530        2.12190        1.39720
H          3.49850        1.59910        2.70890
H          3.10480        3.74140        0.55410
H          0.85140        3.97050        1.53000
H          1.17750        2.64640        2.69760
O          3.03850       -1.38910        1.26460
O          1.65650       -0.19120        2.43000
H          1.29560        2.54260       -1.70240
H          2.75130        1.71130       -1.84580
C          5.96890        0.86860        1.66910
H          5.50340        2.92340        2.07480
H          5.29910        2.45210        0.34750
H          5.84040        0.54350        2.72290
H          7.04160        1.09800        1.49600
H          5.68400        0.03580        0.99490
