19
TSA8_9_Cl_CN_OMe
C          2.84170        1.55390        0.53400
C          1.44040        1.53330       -0.13260
Cl         2.99640        0.17810        1.67510
H          3.64750        1.43840       -0.22320
C          1.59950        1.36560       -1.58060
C          3.04150        2.89730        1.23230
C          1.87970        3.14600        2.22500
C          0.52690        2.87890        1.51480
O          0.67520        2.70890        0.11840
O          4.38510        3.08960        1.66330
H          2.90290        3.68170        0.45610
H          1.89130        2.49060        3.12500
H         -0.12840        3.75820        1.67710
H         -0.01990        2.00620        1.94650
N          1.68300        1.23220       -2.72490
C          4.67400        2.76800        3.00620
H          4.83660        3.70640        3.58210
H          5.62530        2.19230        3.01780
H          3.93080        2.12630        3.51490
