26
TSA8_9_Me_Et_CHF2
C          2.70310        0.54910       -1.35560
C          1.49550       -0.37350       -1.36860
C          2.79130        1.24620        0.01340
H          3.61230       -0.08240       -1.45260
C          1.65850       -1.86510       -1.51760
C          2.66820        1.51720       -2.58300
C          1.50100        2.48340       -2.52600
C          0.53240        2.48260       -3.44660
O          0.37220        0.08950       -1.23230
C          3.97380        2.31360       -2.77560
H          2.57370        0.87200       -3.48680
H          1.44810        3.20610       -1.71740
H          0.54290        1.78140       -4.27500
H         -0.28450        3.19290       -3.37220
H          1.91010        1.89590        0.19560
H          3.71480        1.84910        0.10270
H          2.82720        0.48100        0.81870
C          2.27950       -2.23650       -2.86270
H          0.66390       -2.35800       -1.44720
H          2.29620       -2.24730       -0.69220
H          1.63860       -1.87280       -3.69410
H          2.36650       -3.34090       -2.93660
H          3.29460       -1.80150       -2.97020
F          4.19060        3.21580       -1.75030
F          5.05470        1.45450       -2.86870
H          3.91010        2.88960       -3.72390
