17
TSA8_9_F_Br_CCl3
C          1.91490        0.02360       -0.22060
C          1.38350        0.64030       -1.29250
F          2.49740        0.69120        0.80750
H          1.87110       -1.05920       -0.15530
Br         0.56670       -0.44400       -2.63960
C          4.24130        3.82890       -1.62780
C          3.53690        2.84930       -1.03740
C          2.05370        2.97080       -0.79220
O          1.36910        1.99070       -1.48800
C          5.72070        3.69850       -1.88410
H          3.73520        4.74010       -1.93560
H          4.04460        1.93940       -0.73360
H          1.68950        3.95720       -1.15100
H          1.82210        2.91940        0.29140
Cl         6.33090        5.17030       -2.68200
Cl         6.60350        3.48240       -0.34990
Cl         6.04500        2.30610       -2.95070
