16
TSA8_9_H_NH2_I
C          2.86800        0.82640       -1.48850
C          1.35910        0.82130       -1.40460
H          3.27620        0.31010       -0.59280
H          3.16780        0.23230       -2.37870
N          0.61690        0.25430       -2.38540
C          3.53070        2.21410       -1.64600
C          3.34990        3.15730       -0.47790
C          2.19870        3.78380       -0.21880
O          0.79930        1.29330       -0.42790
I          5.63670        1.87640       -1.90080
H          3.18260        2.70990       -2.57820
H          4.20100        3.38100        0.15860
H          1.32420        3.64460       -0.84380
H          2.13300        4.46860        0.62070
H         -0.41160        0.23670       -2.31760
H          1.06210       -0.16650       -3.21380
