16
TSA8_9_H_NH2_I
C          2.14970        0.12420       -0.31680
C          1.50080        0.81180       -1.27420
H          2.60530        0.60920        0.53740
H          2.22860       -0.95740       -0.37510
N          0.91590        0.11160       -2.35750
C          3.73730        3.47150       -2.35160
C          3.53020        3.11790       -1.07780
C          2.13560        3.06280       -0.51590
O          1.36710        2.16920       -1.24000
I          5.68480        3.54810       -3.15790
H          2.90130        3.72640       -2.99800
H          4.37350        2.86650       -0.44330
H          1.68590        4.07520       -0.60560
H          2.14570        2.79950        0.56160
H          0.43230        0.63100       -3.10510
H          0.98950       -0.91480       -2.43490
