23
TSA8_9_CCl3_CBr3_CCl3
C          1.96740       -0.27730       -0.02220
C          1.70390       -0.40470        1.31000
C          1.30440       -0.85180       -1.26270
H          2.79780        0.37800       -0.27840
C          2.53230        0.41900        2.28470
C         -0.05750       -4.01350        3.56670
C          0.88300       -3.29540        2.93020
C          0.59950       -2.56840        1.64820
O          0.75110       -1.21280        1.85600
C          0.23670       -4.74860        4.84870
H         -1.06080       -4.06720        3.15150
H          1.88450       -3.22640        3.34510
H         -0.44350       -2.76430        1.32260
H          1.30970       -2.94730        0.88120
Cl        -0.24390       -1.70780       -1.08720
Cl         0.96030        0.51250       -2.35560
Cl         2.46220       -1.92820       -2.07780
Br         4.41600       -0.02850        2.13170
Br         2.30010        2.31500        1.93290
Br         2.01750        0.11110        4.13610
Cl        -1.23890       -5.55570        5.43810
Cl         1.48510       -5.99200        4.57280
Cl         0.80010       -3.61760        6.10710
