22
TSA8_9_Me_OMe_OH
C          2.59920        1.10010        0.57760
C          1.24990        1.75020        0.22420
C          2.37990       -0.33470        1.10240
H          3.17390        0.94890       -0.36250
O          1.10080        2.80620       -0.62330
C          3.48610        1.93990        1.55300
C          2.77860        2.40120        2.81310
C          2.40820        1.58310        3.80250
O          0.22400        1.22980        0.63720
O          3.97280        3.06650        0.87940
H          4.37090        1.31960        1.83420
H          2.59280        3.46460        2.93950
H          1.92070        1.99050        4.68230
H          2.60260        0.51970        3.77250
H          1.73690       -0.36270        2.00140
H          3.35310       -0.82140        1.32660
H          1.87080       -0.94200        0.32290
C          2.07670        3.55610       -1.23890
H          1.59550        4.19850       -2.00410
H          2.81820        2.90470       -1.74680
H          2.54830        4.24600       -0.51550
H          4.78980        3.36900        1.35720
