22
TSA8_9_Me_OMe_OH
C          1.73990       -0.04260        0.00600
C          1.57080        1.26650        0.25080
C          1.72500       -1.13340        1.04010
H          1.90300       -0.35490       -1.02080
O          1.58380        2.10610       -0.81390
C          4.49730        2.90980        2.12960
C          3.17660        3.00120        2.34510
C          2.32150        1.78800        2.50670
O          1.36480        1.76240        1.50640
O          5.25450        4.01670        1.97550
H          4.97460        1.93810        2.07270
H          2.70330        3.97840        2.39030
H          1.80860        1.85660        3.48930
H          2.92650        0.85590        2.50530
H          1.48120       -0.77090        2.05550
H          2.71970       -1.62710        1.05180
H          0.95660       -1.88400        0.75880
C          2.08610        3.38430       -0.77670
H          1.87030        3.88940       -1.74030
H          3.18960        3.32930       -0.65440
H          1.64190        3.97460        0.05160
H          4.88080        4.91170        2.00870
