23
TSA8_9_CCl3_CBr3_CBr3
C          2.97890       -1.49800       -1.69620
C          1.48690       -1.97750       -1.63120
C          3.30540       -0.19480       -0.87150
H          3.61050       -2.29860       -1.26220
C          0.85110       -2.60990       -0.37820
C          3.36280       -1.39210       -3.23070
C          2.12290       -1.58670       -4.14410
C          0.93190       -0.78780       -3.60330
O          0.59640       -1.05920       -2.24510
C          4.47120       -2.40520       -3.67650
H          3.73530       -0.36600       -3.43570
H          1.80840       -2.65220       -4.16420
H          0.04990       -1.00300       -4.24190
H          1.16670        0.29180       -3.70210
Cl         2.24820        1.18630       -1.26950
Cl         3.21040       -0.48540        0.88200
Cl         4.97670        0.37380       -1.12070
Br         0.10840       -1.30630        0.85650
Br        -0.64340       -3.68440       -0.97990
Br         2.06010       -3.81480        0.54690
Br         4.88900       -2.16970       -5.56160
Br         6.15120       -2.18690       -2.73230
Br         3.93310       -4.26090       -3.41230
