18
TSA8_9_OH_Br_CF3
C          1.72510        0.06850       -0.14820
C          1.35070        1.02480       -1.02110
O          2.13760        0.34390        1.10460
H          1.68360       -0.97170       -0.46090
Br         0.75210        0.46800       -2.74970
C          4.16320        4.10090        0.06910
C          3.41480        2.99440        0.21630
C          1.90890        3.06100        0.28560
O          1.34480        2.36720       -0.76950
C          5.66580        4.07280       -0.01390
H          3.67990        5.07180        0.00140
H          3.89180        2.02270        0.28250
H          1.57320        4.11750        0.21150
H          1.53370        2.67790        1.25650
H          2.38930       -0.36800        1.70840
F          6.06060        4.61740       -1.22110
F          6.16830        2.78590        0.08050
F          6.18940        4.83250        1.01500
