18
TSA8_9_CH2F_OH_Cl
C          2.28830       -1.24410       -0.32930
C          1.37600       -1.89500        0.69230
C          1.52910       -0.07960       -0.99520
H          3.17230       -0.81960        0.19670
O          1.70060       -1.90470        2.00290
C          2.77930       -2.30200       -1.35260
C          3.72700       -1.71230       -2.36620
C          3.46510       -1.73730       -3.67690
O          0.33250       -2.42080        0.33490
Cl         3.65110       -3.62010       -0.51470
H          1.89730       -2.74880       -1.86390
H          4.64990       -1.25430       -2.02140
H          2.55390       -2.18630       -4.06010
H          4.16940       -1.30360       -4.37900
F          2.35020        0.63390       -1.84950
H          1.16810        0.62370       -0.21400
H          0.65160       -0.45620       -1.56340
H          2.51680       -1.50190        2.33100
