22
TSA8_9_Me_CBr3_NH2
C          2.70080       -1.37490       -0.89180
C          1.40980       -2.13660       -0.62940
C          2.38840        0.12330       -1.02330
H          3.36190       -1.47100       -0.00190
C          1.15630       -2.83570        0.69410
C          3.50780       -1.94680       -2.10450
C          2.78540       -1.91540       -3.44290
C          2.53340       -0.78920       -4.11660
O          0.54830       -2.15560       -1.49700
N          3.91650       -3.32150       -1.80800
H          4.44320       -1.35160       -2.20940
H          2.49020       -2.85510       -3.90230
H          2.03020       -0.83730       -5.07680
H          2.84090        0.17990       -3.74310
H          1.66790        0.32380       -1.84070
H          3.32270        0.69830       -1.19670
H          1.92540        0.49550       -0.08490
Br         1.22600       -1.55720        2.14950
Br        -0.59580       -3.67960        0.74160
Br         2.47450       -4.21570        1.03180
H          4.59000       -3.65060       -2.53710
H          3.08910       -3.96000       -1.81750
