22
TSA8_9_Me_CBr3_NH2
C          1.68480       -0.09790        0.02410
C          1.45250       -1.38890       -0.34030
C          1.83860        1.07850       -0.90210
H          1.73990        0.16920        1.07050
C          1.21690       -2.48510        0.68880
C          4.17980       -3.09310       -3.09800
C          2.87270       -2.80130       -3.16170
C          2.32260       -1.50980       -2.63070
O          1.40180       -1.79820       -1.64060
N          4.67660       -4.32310       -3.59300
H          4.87760       -2.38640       -2.65710
H          2.18040       -3.51550       -3.60040
H          1.81780       -0.97070       -3.45950
H          3.15200       -0.88050       -2.23750
H          1.67660        0.84400       -1.96740
H          2.84720        1.52200       -0.77070
H          1.07790        1.83960       -0.63130
Br         1.27360       -1.95810        2.56600
Br        -0.52610       -3.27070        0.37190
Br         2.55530       -3.86610        0.44680
H          5.68340       -4.53040       -3.52770
H          4.04710       -5.02350       -4.01280
