19
TSA8_9_Cl_NO2_CF3
C          3.15260        0.99640       -1.27590
C          1.65860        0.76880       -1.44290
Cl         3.71180        0.09370        0.16780
H          3.68740        0.56590       -2.14690
N          1.14820        0.15250       -2.54740
C          3.50150        2.51220       -1.21630
C          2.90920        3.17950        0.00950
C          2.01450        4.16830       -0.08220
O          0.90040        1.14280       -0.55740
C          5.02330        2.76670       -1.25350
H          3.08410        2.97790       -2.13850
H          3.22180        2.85000        0.99620
H          1.67390        4.53180       -1.04650
H          1.61580        4.62230        0.81920
O         -0.03030       -0.01560       -2.64890
O          1.93720       -0.26610       -3.51400
F          5.65270        2.23760       -0.14070
F          5.57240        2.20080       -2.39100
F          5.26490        4.12930       -1.28800
