19
TSA8_9_Cl_NO2_CF3
C          3.03420        1.16980       -1.11670
C          1.48150        1.19940       -1.28780
Cl         3.41330        0.60950        0.54140
H          3.48610        0.42500       -1.80720
N          1.08740        0.52580       -2.50970
C          3.59840        2.57710       -1.40620
C          2.94160        3.61260       -0.47020
C          1.47920        3.24040       -0.17520
O          0.93230        2.52040       -1.25720
C          5.13490        2.67150       -1.37900
H          3.27770        2.82750       -2.44280
H          3.46080        3.73000        0.50630
H          0.89420        4.16450        0.01120
H          1.39980        2.63570        0.75800
O          0.46540        1.10180       -3.35140
O          1.35480       -0.75240       -2.66510
F          5.63430        2.38460       -0.12130
F          5.67630        1.78270       -2.29060
F          5.52740        3.95180       -1.72810
