23
TSA8_9_CF3_OMe_NH2
C          2.01960       -0.00010       -0.10410
C          1.91730       -1.35080        0.05480
C          1.80380        0.96070       -1.25590
H          2.31690        0.53680        0.79390
O          2.19000       -1.80070        1.30810
C          3.51310       -2.99850       -3.56490
C          2.87330       -2.06930       -2.83970
C          1.51100       -2.32760       -2.24810
O          1.58090       -2.30220       -0.87290
N          4.80380       -2.74720       -4.09460
H          3.05220       -3.96430       -3.74940
H          3.35450       -1.11350       -2.65960
H          1.16720       -3.34440       -2.53530
H          0.72160       -1.65820       -2.62540
F          2.99010        1.62740       -1.49420
F          1.38280        0.40960       -2.43410
F          0.85390        1.88790       -0.86760
C          2.21360       -3.13420        1.65640
H          2.46570       -3.22660        2.73300
H          2.98650       -3.66880        1.06280
H          1.21900       -3.59620        1.47890
H          5.28060       -1.84740       -3.93500
H          5.28270       -3.47820       -4.63920
