22
TSA8_9_NO2_CH2F_CHF2
C          2.63860       -0.42990       -1.87510
C          1.68810       -1.09060       -0.89770
N          2.86960        0.95330       -1.48480
H          3.60610       -0.98070       -1.81420
C          2.15140       -2.26080       -0.07720
C          2.14280       -0.57040       -3.34790
C          0.82400        0.13270       -3.60630
C         -0.27760       -0.53460       -3.96390
O          0.54590       -0.67400       -0.76920
C          3.18960       -0.06590       -4.35820
H          2.01810       -1.66130       -3.53860
H          0.76210        1.21170       -3.51310
H         -0.27140       -1.61400       -4.07670
H         -1.20130        0.00520       -4.14590
O          3.96890        1.30910       -1.18250
O          1.87300        1.80860       -1.40010
F          1.13810       -2.71710        0.74770
H          3.01550       -1.95450        0.54900
H          2.46570       -3.08480       -0.75160
F          3.42270        1.29010       -4.20700
F          4.38140       -0.75190       -4.20180
H          2.82320       -0.24580       -5.39190
