16
TSA8_9_Br_CN_OH
C          2.28020       -1.85620       -0.24380
C          1.92420       -1.76170        1.25200
Br         3.70020       -0.80630       -1.05420
H          1.46550       -1.35810       -0.79700
C          1.80140       -0.39210        1.76250
C          2.25470       -3.36490       -0.53120
C          0.76400       -3.70040       -0.58940
C         -0.01130       -2.97000        0.54380
O          0.82550       -2.59840        1.64460
O          2.89940       -3.70680       -1.72800
H          2.72740       -3.94570        0.30690
H          0.37070       -3.29890       -1.55930
H         -0.80690       -3.65950        0.88220
H         -0.53330       -2.06260        0.15220
N          1.70450        0.67220        2.20430
H          2.74020       -4.67970       -1.86560
