14
TSA8_9_I_Br_I
C          2.64060       -0.78580       -1.31930
C          1.13080       -0.47520       -1.54560
I          3.62820        0.88010       -0.36670
H          2.74880       -1.61650       -0.58970
Br         0.09370       -2.09410       -1.27350
C          3.26110       -1.16300       -2.66820
C          3.09740       -0.01400       -3.67440
C          1.83060        0.81060       -3.38330
O          0.80790       -0.00530       -2.85750
I          5.30190       -1.80840       -2.54220
H          2.68520       -2.03170       -3.05540
H          3.95710        0.69010       -3.67550
H          1.49010        1.29580       -4.32100
H          2.03780        1.64310       -2.67610
