21
TSA8_9_OH_CBr3_CHF2
C          1.79570        0.24670        0.11870
C          1.49730        1.08840        1.14200
O          1.98050       -1.07550        0.29910
H          1.88670        0.61470       -0.89490
C          1.27170        2.57550        0.91550
C          3.98240       -0.62650        4.18870
C          3.27690       -0.59490        3.04820
C          1.77230       -0.49960        3.04690
O          1.37160        0.67820        2.44240
C          5.47960       -0.70200        4.17550
H          3.47410       -0.59060        5.14840
H          3.80150       -0.62700        2.09790
H          1.39290       -0.48700        4.09100
H          1.30990       -1.38030        2.55750
H          2.18580       -1.65360       -0.44870
Br         1.42110        3.21930       -0.91990
Br        -0.49870        3.04950        1.54430
Br         2.56850        3.55760        1.96910
F          5.89030       -1.85700        3.53530
F          6.00100        0.39910        3.52050
H          5.85990       -0.71270        5.21840
