17
TSA8_9_I_NO2_CN
C          2.51850       -1.52690       -1.13090
C          1.19500       -1.55200       -0.30810
I          2.78710        0.45970       -1.92950
H          3.39210       -1.68060       -0.45960
N          1.42360       -2.20630        0.96060
C          2.41320       -2.63930       -2.18660
C          1.25940       -2.30760       -3.13140
C          0.03480       -1.82460       -2.33270
O          0.11550       -2.21620       -0.97500
C          3.64300       -2.94200       -2.92630
H          2.15670       -3.58030       -1.65280
H          1.52900       -1.51140       -3.86570
H         -0.86200       -2.28020       -2.80060
H         -0.09910       -0.72140       -2.39700
O          1.79420       -3.34120        1.00240
O          1.23880       -1.54020        2.07820
N          4.58970       -3.21550       -3.53290
