27
TSA8_9_CN_Et_Et
C          2.83200       -0.20190       -1.43180
C          1.61790       -1.12440       -1.23750
C          2.54390        1.05970       -0.69780
H          3.70970       -0.68550       -0.96840
C          1.74010       -2.45630       -0.52550
C          3.04900        0.02990       -3.00170
C          2.20160        1.21200       -3.39390
C          0.94820        1.08090       -3.80110
O          0.53100       -0.80110       -1.69330
C          4.45440        0.11690       -3.70590
H          2.66740       -0.91310       -3.45680
H          2.58240        2.20840       -3.18300
H          0.51450        0.09950       -3.94600
H          0.34570        1.97080       -3.92140
N          2.26120        2.05490       -0.17160
C          0.45910       -3.30460       -0.61730
H          1.98400       -2.27600        0.54350
H          2.56180       -3.03690       -0.99190
H         -0.40030       -2.78810       -0.13860
H          0.60640       -4.28220       -0.11100
H          0.20580       -3.50730       -1.68180
C          5.27500        1.40850       -3.59970
H          4.26140        0.00980       -4.80170
H          5.09230       -0.74860       -3.42270
H          4.72000        2.27040       -4.02750
H          6.19570        1.30340       -4.22350
H          5.57650        1.61600       -2.55780
