27
TSA8_9_CN_Et_Et
C          1.70520       -0.06660       -0.03830
C          1.53040       -1.02510       -0.98950
C          1.86540        1.34520       -0.21820
H          1.65430       -0.38240        0.99780
C          1.70770       -2.44020       -0.53780
C          3.33380       -0.12710       -4.14770
C          2.57560        0.67480       -3.37330
C          1.16630        0.31970       -3.03770
O          1.20620       -0.84390       -2.31220
C          4.77110        0.15540       -4.54270
H          2.90020       -1.04580       -4.54020
H          2.96730        1.58920       -2.96450
H          0.58490        0.18150       -3.98210
H          0.65180        1.11500       -2.46450
N          1.99400        2.48080       -0.38690
C          0.43700       -3.20660       -0.76630
H          1.98860       -2.49680        0.53480
H          2.53600       -2.93060       -1.11600
H         -0.40760       -2.70300       -0.25330
H          0.54520       -4.23020       -0.36450
H          0.21030       -3.27990       -1.85210
C          5.37600        1.44250       -3.97420
H          4.82540        0.20810       -5.65300
H          5.39440       -0.69890       -4.20590
H          4.82190        2.33260       -4.34130
H          6.43400        1.52930       -4.30190
H          5.36070        1.42510       -2.86420
