21
TSA8_9_NH2_OMe_OH
C          3.02750       -0.17170        0.95060
C          1.65260        0.20710        1.57090
N          2.83110       -1.03900       -0.21260
H          3.57390        0.73800        0.61590
O          1.25350        1.54250        1.32850
C          3.87860       -0.86700        2.02740
C          3.10350       -2.00580        2.71360
C          1.62790       -1.61830        2.94040
O          1.46730       -0.21360        2.91730
O          5.09200       -1.32550        1.49270
H          4.07980       -0.08950        2.80200
H          3.13900       -2.96940        2.16060
H          1.28450       -2.03050        3.91100
H          0.97600       -2.08890        2.16570
H          2.28680       -1.89200        0.05060
H          2.28870       -0.51920       -0.94060
C          1.82960        2.41020        2.28190
H          1.77850        3.44630        1.88930
H          2.90640        2.19660        2.46610
H          1.25170        2.37710        3.23070
H          5.69850       -1.48660        2.26200
