21
TSA8_9_OH_CH2F_Me
C          1.88280        0.14880       -0.23040
C          1.40300        1.18150       -0.96350
O          2.27970        0.28750        1.04950
H          1.94770       -0.84070       -0.67630
C          0.96560        0.93530       -2.38080
C          3.91950        3.73350       -0.45360
C          3.31080        3.08510        0.54970
C          1.80980        3.03710        0.63610
O          1.27740        2.46310       -0.50490
C          5.41160        3.78330       -0.55480
H          3.32700        4.23380       -1.21530
H          3.90070        2.58470        1.31270
H          1.43180        4.07800        0.71610
H          1.47050        2.49730        1.54440
H          2.60620       -0.47240        1.55050
F         -0.36620        1.27610       -2.52110
H          1.09660       -0.12470       -2.68770
H          1.57370        1.56920       -3.06000
H          5.81890        2.75430       -0.64510
H          5.83710        4.27280        0.34610
H          5.70490        4.36560       -1.45350
