21
TSA8_9_OH_CH2F_Me
C          2.96740        1.25860       -0.47830
C          1.42010        1.30490       -0.72560
O          3.23660        0.78780        0.81800
H          3.46530        0.57800       -1.20830
C          1.09700        1.02280       -2.19430
C          3.51650        2.68620       -0.63040
C          2.83990        3.61930        0.39630
C          1.42420        3.13020        0.75000
O          0.80490        2.54940       -0.37510
C          5.04220        2.75590       -0.52310
H          3.23410        3.03780       -1.64710
H          3.39920        3.69920        1.35450
H          0.82300        3.98550        1.12100
H          1.44810        2.39110        1.58350
H          2.99050       -0.17390        0.82640
F         -0.27410        1.00980       -2.37510
H          1.49870        0.03000       -2.48600
H          1.54040        1.80110       -2.85040
H          5.50790        2.10760       -1.29550
H          5.38310        2.41950        0.47940
H          5.38600        3.79930       -0.68720
