22
TSA8_9_CHF2_NO2_CF3
C          1.98410       -0.08070       -0.20490
C          1.62150       -1.40390       -0.26780
C          1.72420        1.14350       -1.05850
H          2.58830        0.20830        0.64870
N          2.06750       -2.27000        0.78430
C          1.68630       -2.47930       -4.48680
C          1.58930       -1.63400       -3.44420
C          0.42070       -1.70460       -2.49360
O          0.85150       -2.01750       -1.22290
C          2.83330       -2.47250       -5.45900
H          0.90620       -3.21770       -4.65360
H          2.36090       -0.89200       -3.26720
H         -0.26340       -2.52000       -2.81090
H         -0.21650       -0.80960       -2.50020
F          2.93810        1.69470       -1.42090
F          0.98500        0.96570       -2.19400
H          1.18680        1.88360       -0.42730
O          1.76960       -3.42550        0.76380
O          2.82100       -1.82750        1.77160
F          3.77550       -1.50790       -5.14450
F          3.44220       -3.71370       -5.44270
F          2.34740       -2.22760       -6.72930
