22
TSA8_9_CHF2_NO2_CF3
C          2.36240       -1.21720       -1.69700
C          1.20190       -1.58180       -0.71670
C          2.52180        0.31690       -1.70930
H          3.31890       -1.63710       -1.31150
N          1.69990       -2.14560        0.52230
C          2.08750       -1.89470       -3.07440
C          0.64830       -1.63470       -3.55730
C         -0.34640       -1.70320       -2.38610
O          0.21780       -2.42090       -1.30730
C          3.11830       -1.63780       -4.18800
H          2.13660       -2.98700       -2.85920
H          0.50630       -0.67610       -4.10120
H         -1.28390       -2.18840       -2.72670
H         -0.64250       -0.67760       -2.05850
F          3.64550        0.69910       -2.41640
F          1.40710        0.94070       -2.23950
H          2.66030        0.67620       -0.66720
O          1.35070       -3.22930        0.88150
O          2.52380       -1.44830        1.27470
F          3.06460       -0.32960       -4.63250
F          4.39310       -1.91550       -3.72770
F          2.84910       -2.46820       -5.26190
