17
TSA8_9_Cl_F_CHF2
C          1.98390        0.12360       -2.23410
C          0.81830       -0.71290       -2.68820
Cl         1.54110        0.90020       -0.68290
H          2.85110       -0.54570       -2.04360
F          0.96290       -2.05630       -2.82940
C          2.37800        1.18700       -3.29040
C          3.53250        2.02250       -2.77910
C          3.42590        3.34310       -2.59980
O         -0.26040       -0.19510       -2.93180
C          2.77930        0.54140       -4.63090
H          1.49470        1.83980       -3.47660
H          4.47700        1.53680       -2.55000
H          2.50030        3.86770       -2.81570
H          4.27450        3.91010       -2.23100
F          3.09580        1.52320       -5.55370
F          3.87150       -0.29440       -4.46780
H          1.93650       -0.05310       -5.04130
