16
TSA8_9_NO2_Br_I
C          1.69050       -1.75980        0.79530
C          1.23290       -0.41690        1.31750
N          1.52020       -1.80550       -0.65330
H          2.77720       -1.85700        1.01060
Br         2.47240        0.74790        2.19090
C          0.98830       -2.91500        1.56350
C         -0.51780       -2.92240        1.41890
C         -1.32570       -2.75950        2.47160
O          0.07560       -0.05380        1.17650
I          1.76930       -4.83170        0.99280
H          1.25660       -2.80140        2.63800
H         -0.96900       -3.06470        0.44360
H         -0.92720       -2.61330        3.47100
H         -2.40220       -2.76980        2.33570
O          2.08210       -1.00080       -1.33440
O          0.79390       -2.73410       -1.23760
