17
TSA8_9_Cl_Cl_CBr3
C          1.85370        2.11370       -0.97850
C          0.61030        2.11880       -1.82350
Cl         1.49860        1.10420        0.46010
H          2.66880        1.60760       -1.53800
Cl         0.63510        1.42540       -3.43840
C          2.33110        3.53690       -0.54930
C          3.51930        3.37370        0.38370
C          3.48500        3.78440        1.65590
O         -0.43200        2.58380       -1.38810
C          2.73790        4.48360       -1.72670
H          1.49980        4.02900        0.00420
H          4.42680        2.90610        0.01240
H          2.59960        4.25520        2.07160
H          4.35320        3.64900        2.29250
Br         1.25580        4.97590       -2.88390
Br         3.39760        6.17900       -1.03260
Br         4.14070        3.72460       -2.84330
