17
TSA8_9_Cl_Cl_CBr3
C          2.55010        2.03040       -0.93790
C          1.32300        1.44040       -0.17780
Cl         4.05780        1.52820       -0.11000
H          2.60220        1.56480       -1.94400
Cl         0.03400        1.04710       -1.34910
C          2.36420        3.56470       -1.02630
C          2.26880        4.15730        0.39790
C          1.70240        3.14050        1.40440
O          0.73920        2.31030        0.79590
C          3.35500        4.34460       -1.93680
H          1.36230        3.70200       -1.49200
H          3.24000        4.51030        0.80450
H          1.24940        3.68890        2.25560
H          2.50510        2.51260        1.84920
Br         2.79870        6.20210       -2.06610
Br         5.19800        4.34680       -1.31370
Br         3.33770        3.63610       -3.74560
