17
TSA8_9_NH2_OH_I
C          2.92600       -0.99720       -0.71470
C          1.52560       -1.56760       -0.32990
N          2.82350        0.39340       -1.16590
H          3.59020       -0.99970        0.17920
O          1.59920       -2.18540        0.92000
C          3.54790       -1.89440       -1.79240
C          2.61790       -2.02070       -3.00820
C          1.13930       -2.01690       -2.57890
O          1.00330       -2.51100       -1.26490
I          5.51680       -1.28230       -2.37310
H          3.64450       -2.90880       -1.34660
H          2.75900       -1.21560       -3.76110
H          0.55450       -2.63880       -3.28750
H          0.69290       -0.99900       -2.64410
H          2.44010        0.97990       -0.39050
H          2.19790        0.49680       -1.99300
H          1.05390       -1.61250        1.51600
