17
TSA8_9_Cl_Cl_CH2F
C          2.17520        1.43590       -2.05310
C          1.00270        1.48140       -1.02760
Cl         3.65040        0.77170       -1.27880
H          1.92710        0.72800       -2.87390
Cl        -0.53330        1.13270       -1.86690
C          2.39710        2.85720       -2.59690
C          2.73050        3.81870       -1.43730
C          2.07400        3.36400       -0.12140
O          0.83470        2.73910       -0.36840
C          3.44970        2.92470       -3.70970
H          1.42570        3.18250       -3.03280
H          3.82100        3.91410       -1.24080
H          1.93490        4.24470        0.53850
H          2.73280        2.66750        0.44390
F          3.53970        4.21540       -4.20010
H          3.16050        2.24940       -4.54280
H          4.44620        2.61410       -3.33110
