16
TSA8_9_NH2_H_Cl
C          1.97010        0.10520        0.12080
C          1.23250        1.06930        0.68510
N          2.22980       -1.12360        0.78020
H          2.37930        0.26730       -0.87190
H          1.06100        1.99080        0.13390
C         -0.21780        2.05510        4.98440
C         -0.51680        1.38440        3.86640
C         -0.08730        1.86730        2.51250
O          0.70290        0.90790        1.92060
Cl        -0.74170        1.45170        6.54810
H          0.35060        2.97940        4.94700
H         -1.08710        0.46210        3.93160
H          0.48010        2.82230        2.58920
H         -0.99370        2.04040        1.89260
H          2.79940       -1.84170        0.31110
H          1.85850       -1.32040        1.72120
