19
TSA8_9_CF3_H_NO2
C          1.56620        1.27740        1.89100
C          1.38840        1.46950        0.40060
C          1.38690       -0.22200        2.24080
H          2.62510        1.53410        2.11760
H          2.22650        1.80880       -0.19930
C          0.67730        2.30660        2.66980
C         -0.80990        2.13070        2.43130
C         -1.54790        3.07380        1.83620
O          0.32040        1.23850       -0.14550
N          0.94040        2.30390        4.09960
H          0.98380        3.30620        2.28040
H         -1.30110        1.22030        2.75770
H         -1.10530        4.00470        1.49520
H         -2.61080        2.91600        1.68560
F          2.23180       -0.97900        1.44650
F          1.72790       -0.47590        3.55400
F          0.08940       -0.64400        2.01710
O          0.59620        1.39040        4.78680
O          1.46030        3.37190        4.66680
