19
TSA8_9_CF3_H_NO2
C          1.82860        0.05660        0.04210
C          1.17950        1.21330        0.25020
C          2.05240       -1.01670        1.07820
H          2.22160       -0.13080       -0.95320
H          1.07490        1.90400       -0.58330
C         -0.16390        3.81620        3.86150
C         -0.50070        2.76610        3.09050
C         -0.08580        2.67970        1.65030
O          0.65620        1.53590        1.45680
N         -0.55440        3.91430        5.22670
H          0.42450        4.62450        3.43440
H         -1.09210        1.95240        3.50020
H          0.51340        3.56960        1.35300
H         -0.99970        2.63970        1.01880
F          3.41110       -1.21980        1.22840
F          1.51360       -0.69350        2.31080
F          1.47080       -2.18990        0.63650
O         -1.20050        3.05470        5.74770
O         -0.20280        4.97060        5.92550
