18
TSA8_9_F_OMe_F
C          3.07290       -0.70960        0.52130
C          1.66320       -0.68270        1.18060
F          2.92750       -0.92380       -0.83900
H          3.59380        0.26230        0.65890
O          1.40230        0.47450        1.95350
C          3.87670       -1.86060        1.12900
C          3.12510       -3.19140        0.96170
C          1.59950       -2.98470        1.01800
O          1.27880       -1.88680        1.84490
F          5.14080       -1.94520        0.57320
H          3.98330       -1.66620        2.21690
H          3.35940       -3.70370        0.00310
H          1.11420       -3.90880        1.39330
H          1.18910       -2.81670       -0.00620
C          2.06340        0.41310        3.19820
H          1.84680        1.35120        3.74940
H          3.16600        0.36730        3.07900
H          1.67870       -0.42110        3.82430
