21
TSA8_9_CCl3_CF3_CN
C          2.03590        0.99660       -1.56040
C          0.85380       -0.04100       -1.59530
C          2.21200        1.60510       -0.10440
H          2.98210        0.45640       -1.78910
C          1.30830       -1.42280       -2.07260
C          1.80510        1.94460       -2.77490
C          0.45970        2.66870       -2.67570
C         -0.58160        1.74120       -2.03770
O         -0.28450        0.39250       -2.34720
C          2.90170        2.84930       -3.14270
H          1.71040        1.27290       -3.65790
H          0.48080        3.62710       -2.11390
H         -1.58860        2.01670       -2.41120
H         -0.61820        1.88380       -0.93430
Cl         2.10480        3.38250        0.00210
Cl         1.05060        0.95020        1.10460
Cl         3.82080        1.16800        0.53800
F          0.23170       -2.28830       -2.07750
F          1.83710       -1.34780       -3.34930
F          2.27030       -1.91600       -1.20870
N          3.74050        3.57630       -3.47030
