23
TSA8_9_Cl_CHF2_Et
C          2.00070        0.23930        0.20640
C          1.48870        0.83470        1.31240
Cl         2.47940       -1.44440        0.03890
H          2.12200        0.82560       -0.70040
C          1.10980        2.28940        1.24580
C          3.67220        0.64420        4.11530
C          3.40080       -0.42200        3.33830
C          1.97220       -0.82930        3.09500
O          1.28360        0.22310        2.51800
C          5.05110        1.17900        4.42810
H          2.84090        1.18360        4.56210
H          4.18770       -1.00100        2.86850
H          1.50190       -1.06270        4.07310
H          1.89890       -1.74900        2.49100
F         -0.22680        2.43810        1.55970
F          1.86820        2.99400        2.16180
H          1.28770        2.72660        0.23860
C          6.20950        0.43120        3.76990
H          5.19120        1.15390        5.52960
H          5.08820        2.23870        4.09560
H          6.22990       -0.62630        4.10650
H          7.16770        0.91220        4.06010
H          6.11670        0.47430        2.66360
