21
TSA8_9_CHF2_CHF2_CN
C          1.63850       -0.07390        0.01250
C          1.49130       -1.44540       -0.04950
C          1.73030        1.10630       -0.93550
H          1.69140        0.32780        1.01990
C          1.74730       -2.19010        1.24380
C          1.13280       -1.91210       -4.69630
C          1.45590       -2.23590       -3.44420
C          0.54760       -1.91420       -2.30700
O          1.18000       -2.24370       -1.12390
C          2.00940       -2.26460       -5.77330
H          0.20250       -1.40360       -4.93840
H          2.38660       -2.76620       -3.24640
H         -0.40880       -2.47860       -2.46180
H          0.26010       -0.86870       -2.29400
F          3.02700        1.53300       -0.75080
F          1.57080        0.86010       -2.27800
H          1.08290        1.97520       -0.64320
F          2.37810       -3.40100        0.99870
F          2.56810       -1.46440        2.10240
H          0.77940       -2.38480        1.72050
N          2.69520       -2.53590       -6.66270
