19
TSA8_9_CBr3_H_NH2
C          1.55060        1.28910        1.78260
C          1.31620        1.44070        0.29330
C          1.44980       -0.22020        2.20120
H          2.61120        1.58020        1.95430
H          2.13170        1.76700       -0.34450
C          0.69600        2.36250        2.54390
C         -0.80400        2.15930        2.46620
C         -1.61190        3.03860        1.86690
O          0.22730        1.20770       -0.20740
N          1.10390        2.49300        3.94370
H          0.95330        3.33190        2.05460
H         -1.24840        1.28740        2.93010
H         -1.22040        3.93580        1.39810
H         -2.68210        2.86100        1.84500
Br        -0.28060       -1.05200        1.87830
Br         2.73950       -1.25120        1.17030
Br         1.93790       -0.55180        4.05030
H          0.65780        1.75220        4.52800
H          0.75670        3.40810        4.31280
