19
TSA8_9_CBr3_H_NH2
C          1.57770        1.25180        2.02640
C          1.22190        1.64620        0.57680
C          1.49810       -0.30370        2.21480
H          2.64940        1.50150        2.19090
H          1.56610        2.67450        0.32000
C          0.74260        2.19220        2.95190
C         -0.74800        2.18230        2.58590
C         -0.89410        2.44610        1.08150
O         -0.16500        1.49710        0.32030
N          0.94500        1.94020        4.37760
H          1.10430        3.22620        2.74390
H         -1.22110        1.22000        2.85560
H         -0.57700        3.48350        0.82850
H         -1.96860        2.37050        0.81440
Br        -0.24780       -1.12050        1.95520
Br         2.68160       -1.15200        0.92380
Br         2.17620       -0.88090        3.94210
H          0.41290        1.08810        4.66490
H          0.54790        2.74140        4.92090
