23
TSA8_9_Et_CBr3_F
C          1.86560       -1.47390       -1.46580
C          0.99590       -1.50390       -0.17990
C          1.88490       -0.03920       -2.04660
H          2.92070       -1.74140       -1.24150
C          1.35540       -2.47670        0.97090
C          1.31260       -2.49840       -2.47800
C         -0.18670       -2.29390       -2.68170
C         -0.88520       -2.34430       -1.31850
O         -0.39700       -1.34720       -0.43700
F          1.97890       -2.41450       -3.68800
H          1.46370       -3.52330       -2.08820
H         -0.39040       -1.31970       -3.17310
H         -0.81360       -3.35120       -0.86400
H         -1.96740       -2.16270       -1.48450
C          2.58340        0.94730       -1.10860
H          0.85560        0.32650       -2.24420
H          2.44700       -0.03650       -3.00550
H          2.05550        1.01220       -0.13440
H          2.59320        1.95670       -1.57180
H          3.63360        0.63000       -0.93320
Br         3.13810       -2.06800        1.61420
Br         0.14780       -2.19030        2.46000
Br         1.31810       -4.36730        0.52680
