19
TSA8_9_CN_CN_CF3
C          1.66690       -0.08570       -0.02120
C          1.52720       -1.37830       -0.37920
C          1.81660        1.05060       -0.88060
H          1.59240        0.19200        1.04370
C          1.56890       -2.34850        0.67840
C          3.25700       -1.68650       -4.17450
C          2.67840       -0.94310       -3.22180
C          1.25250       -1.17460       -2.81120
O          1.26470       -1.85750       -1.62080
C          4.68900       -1.47820       -4.58010
H          2.69030       -2.47630       -4.65840
H          3.26630       -0.18740       -2.71050
H          0.73260       -1.79210       -3.57180
H          0.65820       -0.23870       -2.75070
N          1.93910        2.05340       -1.44010
N          1.59780       -3.15330        1.50520
F          5.51920       -1.61950       -3.48370
F          5.04100       -2.41910       -5.53030
F          4.85280       -0.21370       -5.11720
