19
TSA8_9_CBr3_NO2_Br
C          1.69580       -1.33250        1.11740
C          3.08810       -1.13440        1.74990
C          1.64440       -1.02790       -0.42780
H          1.09300       -0.50980        1.56390
N          4.20380       -1.85620        1.44020
C          1.00810       -2.64620        1.64640
C         -0.47070       -2.73570        1.34930
C         -1.35160       -1.84480        1.81800
O          3.19260       -0.24770        2.58880
Br         1.81850       -4.33040        1.09360
H          1.09820       -2.64520        2.75550
H         -0.84660       -3.56230        0.75280
H         -1.03660       -1.00790        2.43170
H         -2.40600       -1.95570        1.58580
Br        -0.16650       -0.70110       -1.05350
Br         2.59090        0.62930       -0.80930
Br         2.36860       -2.37740       -1.62320
O          4.18500       -2.71330        0.61490
O          5.34090       -1.59060        2.04850
