19
TSA8_9_CBr3_NO2_Br
C          1.35310       -1.35660        0.44830
C          2.04410       -0.54890        1.58560
C          2.17930       -1.38090       -0.87740
H          0.43610       -0.76280        0.23820
N          3.32090       -1.07830        2.01340
C          0.90230       -2.74500        0.99170
C          0.53930       -2.64890        2.48080
C          0.15050       -1.23060        2.90030
O          1.20660       -0.29090        2.71400
Br        -0.63200       -3.45500        0.02170
H          1.72040       -3.49210        0.93770
H         -0.16950       -3.44260        2.80040
H         -0.08770       -1.25970        3.98320
H         -0.76050       -0.89650        2.35780
Br         1.16040       -2.03840       -2.39330
Br         2.70760        0.42650       -1.36520
Br         3.79320       -2.46140       -0.76920
O          4.30830       -0.42950        1.84350
O          3.40170       -2.22370        2.65540
