21
TSA8_9_NO2_NO2_CBr3
C          2.73630       -1.27050       -1.49300
C          1.56750       -2.17710       -1.11940
N          2.37850        0.11120       -1.20610
H          3.60520       -1.52230       -0.85090
N          1.68340       -3.13450       -0.15480
C          3.23130       -1.41280       -2.97520
C          2.14350       -1.06630       -3.97820
C          2.24120       -0.01280       -4.79590
O          0.49480       -2.02850       -1.68980
C          3.85960       -2.79850       -3.32390
H          4.06070       -0.67600       -3.07830
H          1.25810       -1.68900       -4.04840
H          1.44470        0.20020       -5.50140
H          3.10650        0.64200       -4.77040
O          2.99610        0.73090       -0.39320
O          1.36320        0.68620       -1.81600
O          0.74740       -3.82380        0.12030
O          2.81880       -3.31740        0.48530
Br         4.61780       -2.74870       -5.11500
Br         5.33600       -3.23810       -2.13740
Br         2.59970       -4.28210       -3.29170
