14
TSA8_9_Cl_I_Br
C          1.94100        0.24750        0.14670
C          1.39170        1.03510        1.09700
Cl         2.72030       -1.31360        0.38020
H          1.89060        0.58260       -0.88410
I          0.48190        2.83070        0.45560
C          4.14300        0.49850        4.36610
C          3.50650        0.19960        3.22840
C          2.03540       -0.13290        3.20250
O          1.34560        0.78980        2.43970
Br         6.00720        0.92140        4.34690
H          3.61830        0.50910        5.31650
H          4.06680        0.20320        2.30010
H          1.62350       -0.09130        4.23360
H          1.85440       -1.16290        2.83980
