14
TSA8_9_Cl_I_Br
C          2.99230        0.70880        1.32170
C          1.44550        0.80150        1.47540
Cl         3.45610       -0.87210        0.61500
H          3.34540        1.47420        0.59860
I          0.81310        2.82220        1.14690
C          3.62760        0.92100        2.69940
C          3.12190       -0.13640        3.69440
C          1.70270       -0.61150        3.33420
O          0.95030        0.43840        2.76740
Br         5.56900        0.96000        2.64540
H          3.29040        1.91590        3.06330
H          3.76830       -1.03960        3.73640
H          1.20290       -0.99050        4.24910
H          1.72700       -1.47090        2.62830
