20
TSA8_9_CF3_Br_CH2F
C          2.76280        0.19220        1.27210
C          1.67020       -0.32340        2.20500
C          2.44940        1.61430        0.72950
H          2.74710       -0.48070        0.38470
Br         0.18670        0.73660        2.81550
C          4.16650        0.00180        1.94970
C          5.31210        0.22080        0.98130
C          6.13350       -0.77160        0.62130
O          1.71890       -1.48150        2.58940
C          4.39560        0.84880        3.21560
H          4.20260       -1.06230        2.27780
H          5.49260        1.20700        0.56910
H          6.00610       -1.77870        1.00640
H          6.94740       -0.57780       -0.06960
F          2.36090        2.54750        1.74460
F          3.40820        2.02680       -0.17420
F          1.23890        1.58980        0.05830
F          4.52010        2.19420        2.92270
H          5.34120        0.52650        3.70180
H          3.57220        0.69870        3.94440
