20
TSA8_9_CF3_Br_CH2F
C          2.08540        0.56890        0.29330
C          1.90450       -0.47640        1.14220
C          1.05070        1.57350       -0.15750
H          3.06730        0.73380       -0.13480
Br         0.21730       -0.91100        1.94670
C          5.67910       -0.11580        3.08370
C          4.77120        0.03400        2.10900
C          4.28190       -1.13170        1.28730
O          2.92490       -1.31520        1.48660
C          6.13070        1.05520        3.90160
H          6.09390       -1.09610        3.30240
H          4.36390        1.02120        1.90990
H          4.80100       -2.06390        1.59730
H          4.50510       -0.97690        0.21040
F         -0.19180        1.39350        0.41240
F          1.49530        2.84060        0.16850
F          0.91890        1.49060       -1.53130
F          6.72020        2.00380        3.08620
H          6.86850        0.71940        4.65940
H          5.26070        1.50680        4.42480
