29
TSA8_9_Et_CCl3_Et
C          2.72260       -1.92850       -1.29570
C          1.32420       -2.47790       -0.89570
C          2.85920       -0.40820       -0.98740
H          3.50290       -2.42330       -0.69200
C          0.99930       -2.69830        0.59750
C          2.92510       -2.28140       -2.81640
C          1.56670       -2.49250       -3.53540
C          0.48450       -1.58290       -2.94280
O          0.27310       -1.76160       -1.54060
C          3.76210       -3.56870       -3.03410
H          3.45770       -1.46210       -3.33470
H          1.20010       -3.53070       -3.36890
H         -0.46640       -1.80230       -3.47180
H          0.74060       -0.52400       -3.15040
C          4.25790        0.15450       -1.26100
H          2.68540       -0.24340        0.09090
H          2.11770        0.19330       -1.54820
H          5.01830       -0.40360       -0.67510
H          4.28770        1.22080       -0.95070
H          4.52680        0.11810       -2.33390
Cl         2.29180       -3.61770        1.41310
Cl         0.69980       -1.18220        1.48710
Cl        -0.48620       -3.67520        0.70270
C          5.21770       -3.45550       -2.57310
H          3.79100       -3.79020       -4.12450
H          3.28000       -4.42880       -2.51810
H          5.72350       -2.61940       -3.10020
H          5.74980       -4.39990       -2.81540
H          5.30580       -3.30000       -1.48000
