20
TSA8_9_Et_Cl_Cl
C          2.28570        1.04380        0.85720
C          1.09920        1.61950        0.11290
C          2.17770       -0.50610        0.81890
H          3.18050        1.34820        0.27010
Cl         1.35980        2.60260       -1.32050
C          2.46420        1.67740        2.27670
C          1.50180        1.19660        3.34240
C          0.21170        1.54040        3.38500
O         -0.04560        1.36300        0.44650
Cl         4.13640        1.42760        2.86820
H          2.39100        2.78410        2.19620
H          1.88210        0.57090        4.14530
H         -0.22840        2.20330        2.65280
H         -0.41680        1.17460        4.19020
C          3.38730       -1.26310        1.36190
H          2.05950       -0.81310       -0.24420
H          1.27230       -0.83960        1.37180
H          4.30900       -0.95620        0.82350
H          3.23410       -2.35230        1.20880
H          3.50520       -1.10230        2.45070
