22
TSA8_9_Me_OH_OMe
C          2.91470        0.72030        1.20420
C          1.49690        1.20820        0.96920
C          3.03540       -0.68810        0.58110
H          3.59780        1.40920        0.66120
O          1.26140        2.30110        0.20960
C          3.26510        0.82270        2.73040
C          2.58220       -0.22850        3.58790
C          1.66570        0.08680        4.50900
O          0.54970        0.61600        1.46360
O          4.65260        0.93050        3.03560
H          2.87490        1.82050        3.03360
H          2.83710       -1.27490        3.45730
H          1.36960        1.11650        4.68180
H          1.20100       -0.69660        5.09940
H          2.34200       -1.40150        1.07520
H          4.05230       -1.11000        0.62330
H          2.76270       -0.64000       -0.49520
H          1.97810        2.80280       -0.20420
C          5.45000       -0.12550        2.55610
H          6.40280       -0.11700        3.12360
H          5.71770        0.04900        1.49330
H          5.00250       -1.12450        2.73550
