19
TSA8_9_CN_H_OMe
C          2.82840       -0.97460        1.29980
C          1.60150       -0.02490        1.51630
C          2.55840       -1.75870        0.07840
H          3.71110       -0.33300        1.09020
H          1.91010        1.04410        1.42670
C          2.94330       -1.88770        2.57540
C          1.59640       -2.59440        2.75940
C          0.49520       -1.50790        2.89790
O          1.00380       -0.18880        2.79110
O          4.09200       -2.67530        2.89310
H          3.01480       -1.17590        3.41320
H          1.37900       -3.24080        1.87480
H          0.09730       -1.62350        3.92520
H         -0.35500       -1.64480        2.19590
N          2.34380       -2.34660       -0.89700
C          4.55140       -3.67890        2.02420
H          5.01810       -4.47430        2.66220
H          5.38850       -3.26760        1.42520
H          3.77250       -4.19380        1.43260
