22
TSA8_9_NH2_CF3_CF3
C          2.99650       -0.04030        1.45600
C          1.61320        0.57720        1.35180
N          3.31150       -0.79970        0.24130
H          3.72820        0.79460        1.53350
C          1.45100        2.07300        1.36480
C          3.14960       -0.90620        2.74150
C          2.25120       -2.12860        2.72140
C          1.28600       -2.31720        3.62590
O          0.62690       -0.13810        1.24990
C          4.61020       -1.34880        2.96250
H          2.87970       -0.25750        3.60650
H          2.39690       -2.88460        1.95540
H          1.10270       -1.59380        4.41380
H          0.66870       -3.20870        3.57900
H          3.30730       -0.15160       -0.57980
H          2.59130       -1.53780        0.06790
F          0.11520        2.42090        1.26410
F          1.95980        2.58450        2.54450
F          2.13830        2.62090        0.29720
F          5.04750       -2.16000        1.92960
F          5.43590       -0.24090        3.04320
F          4.71040       -2.05120        4.15120
