22
TSA8_9_OMe_CBr3_OH
C          1.41260       -0.11360       -0.08690
C          1.38430       -1.24480       -0.81930
O          1.32940        1.09410       -0.69180
H          1.51070       -0.14550        0.99210
C          1.50030       -2.63340       -0.20970
C         -0.00010        0.36120       -4.94650
C          0.15590        0.35080       -3.61450
C          0.06570       -0.91760       -2.81490
O          1.26380       -1.16290       -2.17090
O          0.07000        1.51310       -5.64970
H         -0.18820       -0.56350       -5.48410
H          0.34270        1.28300       -3.09110
H         -0.15630       -1.78610       -3.47180
H         -0.77070       -0.82090       -2.08860
C          1.36490        2.27430        0.01550
H          1.28890        3.12600       -0.69100
H          2.32240        2.35690        0.57450
H          0.51300        2.32000        0.72730
Br         1.69390       -2.70180        1.73000
Br        -0.08220       -3.65990       -0.65460
Br         3.04070       -3.52360       -0.97340
H          0.22440        2.37040       -5.22710
