22
TSA8_9_OMe_CBr3_OH
C          1.11380        0.20080       -1.68120
C          1.54140       -1.30180       -1.77710
O          2.17550        0.94440       -1.10450
H          0.15850        0.26960       -1.10750
C          1.59520       -2.10420       -0.45460
C          0.85930        0.68150       -3.11990
C         -0.26090       -0.15010       -3.77050
C         -0.35620       -1.55010       -3.14750
O          0.92650       -2.04900       -2.83250
O          0.52800        2.04390       -3.15130
H          1.80940        0.50900       -3.67970
H         -1.26260        0.32150       -3.65990
H         -0.86940       -2.23210       -3.85580
H         -0.98920       -1.52440       -2.23440
C          1.68460        1.95130       -0.24490
H          1.13880        2.73520       -0.81050
H          2.55020        2.44300        0.24190
H          1.05880        1.52560        0.57150
Br         2.72580       -1.26890        0.88290
Br        -0.16310       -2.36720        0.32290
Br         2.36170       -3.85080       -0.80530
H          0.68790        2.35460       -4.08060
