23
TSA8_9_Et_CF3_Cl
C          2.54540       -0.78060       -1.11510
C          1.19290       -1.51840       -0.79970
C          2.30750        0.74730       -0.95970
H          3.31090       -1.06040       -0.35720
C          1.34800       -2.58030        0.29330
C          3.02440       -1.26850       -2.50290
C          1.96530       -0.99220       -3.57720
C          0.55080       -1.19900       -3.00970
O          0.58310       -2.12170       -1.94300
Cl         4.64390       -0.72250       -3.01470
H          3.11550       -2.37430       -2.42360
H          2.02560        0.02880       -4.01250
H         -0.11710       -1.56470       -3.81660
H          0.10010       -0.24130       -2.66610
C          3.56490        1.61160       -1.04020
H          1.88130        0.91360        0.05440
H          1.57180        1.12580       -1.69670
H          4.31680        1.27100       -0.29710
H          3.29690        2.66490       -0.81200
H          4.00130        1.60630       -2.05490
F          0.11490       -3.14310        0.56660
F          2.21590       -3.57400       -0.12250
F          1.83490       -2.00150        1.45190
