16
TSA8_9_CN_CN_Br
C          2.49180       -0.69910        1.38950
C          1.30580        0.26880        1.69570
C          2.12230       -1.53460        0.23580
H          3.35590       -0.10200        1.01360
C          1.47100        1.69430        1.37690
C          2.64880       -1.63090        2.66210
C          1.28760       -2.28220        2.92160
C          0.20530       -1.18880        3.02280
O          0.77670        0.10250        2.99430
Br         3.98430       -3.04560        2.70130
H          2.88290       -1.02960        3.57260
H          1.04020       -2.98900        2.08950
H         -0.30000       -1.33290        3.99360
H         -0.55960       -1.27830        2.21470
N          1.80020       -2.20630       -0.64970
N          1.56060        2.82290        1.13490
