17
TSA8_9_H_CCl3_F
C          1.84600        2.03170       -0.41250
C          0.69310        1.91880       -1.38130
H          1.59850        1.43490        0.49100
H          2.76810        1.60720       -0.86610
C          0.88450        1.30720       -2.75250
C          2.10800        3.49560       -0.02320
C          3.26830        3.61420        0.93110
C          3.25190        3.05770        2.14650
O         -0.40960        2.31850       -1.03570
F          2.39460        4.22940       -1.16220
H          1.20330        3.92950        0.45600
H          4.14480        4.17910        0.62680
H          2.39340        2.49270        2.49530
H          4.10690        3.17050        2.80520
Cl         2.09310        2.23500       -3.67700
Cl         1.44740       -0.37600       -2.59030
Cl        -0.63630        1.29320       -3.69120
