17
TSA8_9_H_CCl3_F
C          1.98940        0.19120       -0.28250
C          1.59940        1.25060       -1.02590
H          2.23560        0.28340        0.76750
H          2.06100       -0.80930       -0.68880
C          1.21960        1.11750       -2.49170
C          2.41080        5.44410        0.93280
C          2.76210        4.30490        0.32730
C          2.10340        2.99670        0.65390
O          1.50680        2.50470       -0.49380
F          3.03070        6.60750        0.60290
H          1.63350        5.45930        1.68970
H          3.54450        4.32230       -0.42610
H          1.32350        3.13020        1.43430
H          2.88840        2.31960        1.04580
Cl         2.30200        2.15210       -3.45600
Cl         1.31510       -0.53970       -3.16410
Cl        -0.45040        1.69410       -2.71720
