23
TSA8_9_CBr3_CH2F_CCl3
C          1.38630       -0.46740       -0.18490
C          1.98110       -1.46420        0.53380
C          2.04380        0.40860       -1.23100
H          0.33580       -0.27980       -0.01700
C          3.43850       -1.82890        0.40230
C         -1.14590       -3.49660        3.49310
C         -0.44730       -3.49220        2.34820
C         -0.09340       -2.24510        1.60110
O          1.27410       -2.23780        1.40170
C         -1.47590       -4.78990        4.19540
H         -1.48540       -2.55530        3.91910
H         -0.12680       -4.43720        1.91780
H         -0.42370       -1.31950        2.11990
H         -0.60500       -2.31770        0.61570
Br         0.73650        1.65580       -1.93580
Br         3.49730        1.47180       -0.50000
Br         2.66330       -0.65710       -2.73020
F          4.05620       -1.68190        1.63070
H          3.99390       -1.23140       -0.33780
H          3.50970       -2.89250        0.09060
Cl        -2.45690       -4.47010        5.64570
Cl        -2.40650       -5.86840        3.11640
Cl         0.02140       -5.61890        4.69700
