23
TSA8_9_CBr3_CH2F_CCl3
C          0.71730       -1.58850        1.17030
C          1.70180       -2.77870        0.84180
C          1.31810       -0.21710        1.65090
H          0.28830       -1.29580        0.18800
C          3.03010       -2.45370        0.15190
C         -0.50170       -2.19660        1.99400
C         -0.92310       -3.55910        1.36440
C         -0.31840       -3.77650       -0.01350
O          1.09740       -3.82680        0.07090
C         -0.38650       -2.40620        3.55200
H         -1.35770       -1.50590        1.83520
H         -0.53770       -4.41450        1.96400
H         -0.65740       -3.01880       -0.75160
H         -0.67610       -4.75890       -0.38680
Br        -0.08900        1.08980        1.97280
Br         2.49360       -0.32520        3.19910
Br         2.33990        0.66250        0.24310
F          3.86900       -1.72910        0.97420
H          2.86170       -1.93420       -0.81300
H          3.55710       -3.40700       -0.06560
Cl        -0.35970       -0.90190        4.50330
Cl        -1.83900       -3.24830        4.18060
Cl         1.03720       -3.39250        3.99640
