23
TSA8_9_CCl3_CCl3_CBr3
C          1.59530       -0.01240       -0.03080
C          1.45890       -1.06150       -0.88800
C          1.79000        1.44470       -0.41150
H          1.52040       -0.19560        1.03290
C          1.20080       -2.48320       -0.39930
C          3.81730       -1.58310       -4.89980
C          2.80400       -1.67070       -4.02410
C          2.59770       -0.60490       -2.99090
O          1.47850       -0.89330       -2.23770
C          4.06880       -2.64150       -5.94000
H          4.47890       -0.72160       -4.85490
H          2.12830       -2.52160       -4.05640
H          2.44550        0.37080       -3.49860
H          3.50880       -0.56980       -2.35630
Cl         0.52960        1.98970       -1.54910
Cl         1.66020        2.45350        1.05400
Cl         3.40300        1.76790       -1.09390
Cl         2.48780       -3.55220       -1.01170
Cl         1.13340       -2.69890        1.37730
Cl        -0.35500       -3.04300       -1.06190
Br         5.59670       -2.14730       -7.02530
Br         4.45230       -4.34250       -5.08990
Br         2.53230       -2.83990       -7.10740
