23
TSA8_9_CCl3_CCl3_CBr3
C          2.93530       -0.90450       -1.83900
C          1.43870       -1.17820       -1.47350
C          3.32890        0.46900       -1.18660
H          3.56070       -1.67360       -1.34250
C          0.96260       -2.51890       -0.86220
C          3.18520       -0.97240       -3.39370
C          1.88420       -1.32620       -4.13220
C          0.72670       -0.45230       -3.64600
O          0.45750       -0.50160       -2.24900
C          4.32100       -1.94710       -3.85950
H          3.45560        0.04660       -3.74560
H          1.61650       -2.38710       -4.00690
H         -0.18650       -0.76680       -4.19270
H          0.94050        0.59920       -3.92780
Cl         2.37970        1.84350       -1.82290
Cl         3.05700        0.40820        0.57990
Cl         5.04120        0.89910       -1.39400
Cl         0.77770       -3.83750       -2.03940
Cl         2.06700       -3.06430        0.42730
Cl        -0.62940       -2.26190       -0.10300
Br         6.07850       -1.52730       -3.16630
Br         3.98140       -3.79730       -3.36890
Br         4.50400       -1.87990       -5.79620
