20
TSA8_9_CHF2_CH2F_Cl
C          1.76390        0.03330        0.00820
C          1.50080       -0.40750        1.25670
C          1.77170       -0.82690       -1.23160
H          2.00280        1.08270       -0.13910
C          1.52800        0.54470        2.42400
C          4.11750       -2.13940        3.33130
C          3.46540       -2.20980        2.16700
C          2.02270       -2.65260        2.07710
O          1.19500       -1.71110        1.48370
Cl         5.79520       -1.62250        3.37150
H          3.62670       -2.40180        4.26220
H          3.98230       -1.94660        1.24780
H          1.60810       -2.92240        3.07290
H          2.00750       -3.56540        1.44670
F          3.02970       -0.78070       -1.80200
F          1.44530       -2.14780       -0.98390
H          1.03580       -0.41700       -1.95290
F          0.28070        0.57200        3.02080
H          1.79170        1.57830        2.11200
H          2.27640        0.20820        3.16920
