20
TSA8_9_CHF2_CH2F_Cl
C          2.72780       -0.38260        0.92370
C          1.30310       -0.52370        1.50610
C          2.68560       -0.71470       -0.58890
H          3.05010        0.68040        0.99010
C          1.04270        0.26310        2.80030
C          3.69260       -1.24610        1.77560
C          3.17940       -2.68050        1.88430
C          1.73440       -2.66010        2.40120
O          0.87880       -1.88250        1.57400
Cl         5.37920       -1.22110        1.18980
H          3.71990       -0.82790        2.80440
H          3.23090       -3.19800        0.90570
H          1.69390       -2.31430        3.45510
H          1.36010       -3.70480        2.41100
F          3.92370       -0.53400       -1.17670
F          2.24290       -1.99910       -0.84460
H          1.97940       -0.01420       -1.08400
F         -0.28840        0.14510        3.15340
H          1.26810        1.33590        2.62770
H          1.67290       -0.08670        3.64170
