19
TSA8_9_NH2_Br_CF3
C          1.57660       -2.42160        1.46280
C          1.13420       -0.94430        1.47730
N          1.60180       -2.92230        0.08420
H          2.61120       -2.49570        1.86460
Br         1.56200        0.01110        3.12430
C          0.62120       -3.24370        2.36380
C         -0.83390       -2.98040        1.95230
C         -1.09280       -1.46890        1.96290
O         -0.21970       -0.78150        1.07850
C          0.93880       -4.75000        2.37690
H          0.74040       -2.87500        3.40730
H         -1.04580       -3.38740        0.94090
H         -1.02110       -1.06280        2.99500
H         -2.13820       -1.29430        1.63410
H          2.32560       -2.39540       -0.45740
H          0.68190       -2.78260       -0.39010
F          0.76900       -5.30810        1.12130
F          2.24430       -4.95400        2.78680
F          0.09350       -5.39430        3.26300
