19
TSA8_9_H_CBr3_NH2
C          2.88080        2.63030        0.56410
C          1.54000        1.85610        0.33180
H          3.61970        1.92340        1.00070
H          3.30890        3.01650       -0.38440
C          0.86740        2.13530       -1.02690
C          2.65320        3.75940        1.57680
C          2.10220        3.17930        2.89740
C          1.25000        1.92730        2.63330
O          0.59700        2.04490        1.38840
N          3.87460        4.53110        1.80140
H          1.88240        4.43610        1.15210
H          2.89680        2.88890        3.61910
H          0.51160        1.79700        3.45080
H          1.88590        1.00950        2.64350
Br         2.03450        1.62340       -2.49160
Br        -0.73890        1.05990       -1.18650
Br         0.36630        3.99880       -1.24020
H          4.61240        3.91840        2.21920
H          3.67210        5.31140        2.46810
