19
TSA8_9_H_NO2_Me
C          2.79210        0.39840        1.14460
C          1.76290        1.34280        0.49610
H          2.23190       -0.38130        1.70620
H          3.39830       -0.11210        0.36560
N          2.33520        2.21490       -0.51820
C          3.68270        1.17700        2.11700
C          2.77720        1.88330        3.12680
C          1.79250        2.78020        2.37220
O          0.98230        2.04420        1.46230
C          4.66880        0.25020        2.83150
H          4.26530        1.94050        1.55420
H          2.20920        1.13710        3.72630
H          2.33450        3.60370        1.86330
H          1.12800        3.26140        3.11930
O          2.10050        3.38540       -0.52700
O          2.98050        1.68410       -1.53410
H          4.12850       -0.53060        3.40940
H          5.30320        0.83690        3.52970
H          5.32990       -0.24690        2.09020
