24
TSA8_9_OMe_CHF2_CHF2
C          2.46910        1.18510        0.15560
C          1.20780        1.18140       -0.68250
O          2.22580        0.49430        1.37310
H          3.27740        0.71230       -0.45520
C          1.22030        0.58310       -2.06170
C          2.95110        2.62870        0.46010
C          1.96670        3.36760        1.34330
C          1.35040        4.48380        0.94420
O          0.17330        1.65790       -0.23730
C          4.33460        2.63220        1.13690
H          3.06710        3.16140       -0.51180
H          1.75360        2.98020        2.33590
H          1.53240        4.90700       -0.03840
H          0.65260        4.98250        1.60920
C          2.74910       -0.81340        1.32410
H          2.49870       -1.32410        2.27660
H          3.85820       -0.79350        1.24410
H          2.28680       -1.40120        0.50080
F         -0.02980        0.67490       -2.64870
F          2.13750        1.25330       -2.85060
H          1.50820       -0.48690       -1.99730
F          4.30050        1.97930        2.35730
F          5.27090        2.02000        0.32160
H          4.66110        3.68060        1.30700
