24
TSA8_9_OMe_CHF2_CHF2
C          1.48600        0.05480       -0.10480
C          1.33700        1.02040       -1.04140
O          1.53160        0.32630        1.21940
H          1.55240       -0.98410       -0.42230
C          1.25780        0.63030       -2.49250
C          3.70960        4.14050        0.74190
C          2.98110        3.01430        0.69540
C          1.50200        3.04040        0.40350
O          1.23170        2.35650       -0.76740
C          5.18280        4.10770        1.01750
H          3.23790        5.10480        0.57360
H          3.46700        2.05760        0.86300
H          1.16370        4.08980        0.26470
H          0.91420        2.63200        1.24990
C          1.60570       -0.66480        2.17110
H          1.63270       -0.20160        3.17850
H          2.52680       -1.26890        2.02640
H          0.71250       -1.32330        2.10450
F          0.04650        1.04700       -3.01180
F          2.28360        1.24450       -3.18600
H          1.34320       -0.46740       -2.63860
F          5.42110        3.54400        2.25770
F          5.82880        3.36910        0.04260
H          5.58480        5.14270        1.00880
