24
TSA8_9_OMe_CHF2_CHF2
C          2.69340        1.26880        0.20870
C          1.33600        1.30810       -0.58210
O          2.46500        0.93010        1.56700
H          3.40390        0.54440       -0.25760
C          1.49560        0.79210       -2.01460
C          3.31840        2.67730        0.14520
C          2.35300        3.70830        0.77000
C          0.88730        3.27610        0.59420
O          0.72020        2.59780       -0.62950
C          4.71790        2.76630        0.77500
H          3.42720        2.93780       -0.92960
H          2.51460        3.86830        1.85830
H          0.23210        4.17050        0.63270
H          0.55810        2.62090        1.43390
C          2.21830       -0.45320        1.69470
H          2.06400       -0.68120        2.76920
H          3.09060       -1.05610        1.35850
H          1.28800       -0.75010        1.16310
F          0.25760        0.74440       -2.62900
F          2.33200        1.61540       -2.74650
H          1.91730       -0.23490       -1.99900
F          4.67860        2.45820        2.12380
F          5.58340        1.89550        0.13730
H          5.11210        3.79820        0.65780
