20
TSA8_9_CF3_CBr3_Cl
C          2.49050       -1.48730        0.17150
C          1.19960       -1.98330        0.82030
C          2.19120       -0.30150       -0.77920
H          3.15230       -1.09000        0.97270
C          0.95370       -1.86480        2.31740
C          3.29550       -2.60590       -0.56300
C          2.53670       -3.27080       -1.68880
C          2.94670       -3.20290       -2.95880
O          0.32020       -2.44990        0.11070
Cl         3.83410       -3.87950        0.56140
H          4.22430       -2.14130       -0.96170
H          1.63520       -3.83200       -1.46730
H          2.37590       -3.69850       -3.73740
H          3.84330       -2.65670       -3.23330
F          3.37080        0.19350       -1.30580
F          1.36550       -0.68690       -1.82110
F          1.56910        0.72050       -0.08620
Br         1.02990       -0.01190        2.88040
Br        -0.80070       -2.54520        2.81340
Br         2.26090       -2.85760        3.34460
