20
TSA8_9_CF3_CBr3_Cl
C          2.78740       -1.29780       -0.11000
C          1.31360       -1.71750        0.15300
C          2.80480       -0.06750       -1.04770
H          3.24810       -0.91020        0.82340
C          0.90370       -2.14500        1.58400
C          3.64920       -2.46910       -0.66210
C          2.80790       -3.66680       -1.10660
C          1.51090       -3.19540       -1.75280
O          0.65970       -2.45420       -0.88330
Cl         4.85600       -3.02310        0.53470
H          4.23310       -2.11410       -1.53800
H          2.53340       -4.31420       -0.25570
H          0.95940       -4.10290       -2.07530
H          1.72690       -2.61230       -2.66910
F          4.10580        0.37370       -1.21900
F          2.26760       -0.35030       -2.28850
F          2.07320        0.95970       -0.47740
Br         1.30220       -0.72120        2.84080
Br        -1.01640       -2.41210        1.65290
Br         1.74700       -3.75990        2.24080
