20
TSA8_9_NO2_OH_Me
C          2.29540       -2.21980        0.96840
C          0.87500       -1.81280        0.45500
N          3.35240       -1.55930        0.20830
H          2.39730       -1.88500        2.02540
O         -0.00570       -1.77600        1.53880
C          2.37050       -3.76160        0.89480
C          2.18710       -4.23430       -0.55730
C          1.29450       -3.26930       -1.35550
O          0.30920       -2.67890       -0.53500
C          3.61620       -4.38290        1.53590
H          1.49760       -4.13700        1.47600
H          3.14480       -4.33210       -1.11430
H          0.81420       -3.82870       -2.18440
H          1.89370       -2.47630       -1.84770
O          4.49440       -1.70890        0.52210
O          3.06210       -0.67250       -0.72120
H         -0.23460       -0.81810        1.64310
H          3.70180       -4.05610        2.59380
H          4.54090       -4.10410        0.99230
H          3.53270       -5.49080        1.51790
