21
TSA8_9_I_CHF2_OMe
C          3.17680       -0.07030       -1.74810
C          1.70800       -0.35140       -1.52100
I          4.00050        0.46760        0.17830
H          3.66080       -1.01790       -2.07090
C          1.15630       -1.72860       -1.76190
C          3.36840        0.97050       -2.89600
C          2.88300        2.36280       -2.53500
C          1.85820        2.94340       -3.16720
O          0.96630        0.53970       -1.13320
O          4.67170        0.99780       -3.47080
H          2.73250        0.58730       -3.72600
H          3.37210        2.91420       -1.73920
H          1.32980        2.43830       -3.96970
H          1.53910        3.94020       -2.87940
F         -0.19860       -1.77000       -1.48200
F          1.35460       -2.08430       -3.08320
H          1.67980       -2.45500       -1.10580
C          5.71090        1.26870       -2.55820
H          6.61010        1.55580       -3.14050
H          5.97870        0.35340       -1.99160
H          5.49420        2.13220       -1.89700
