21
TSA8_9_I_CHF2_OMe
C          3.23220       -0.00580       -1.75860
C          1.67330       -0.13340       -1.69730
I          3.80380        1.10890        0.00500
H          3.71160       -1.00240       -1.64510
C          1.20820       -1.57390       -1.92180
C          3.60930        0.61570       -3.12940
C          2.92590        1.97770       -3.34190
C          1.56320        2.00870       -2.62720
O          0.98270        0.72110       -2.61450
O          4.97560        0.58980       -3.52540
H          3.11670       -0.06020       -3.86160
H          3.51090        2.85350       -2.99450
H          0.89440        2.72690       -3.14440
H          1.66130        2.38800       -1.58570
F         -0.16300       -1.64770       -1.76160
F          1.54020       -2.00160       -3.19470
H          1.68480       -2.24370       -1.17540
C          5.85420        1.17170       -2.59300
H          6.82070        1.35910       -3.10390
H          6.06410        0.46320       -1.76490
H          5.50780        2.16120       -2.23140
