18
TSA8_9_OH_CH2F_I
C          2.83660        1.10620       -0.56920
C          1.39490        1.31380       -0.97300
O          2.88580        0.12960        0.44230
H          3.37010        0.74580       -1.48250
C          0.97500        1.09600       -2.39950
C          3.59140        2.38330       -0.11880
C          3.10450        3.01260        1.16850
C          1.96400        3.70220        1.25930
O          0.55560        1.61240       -0.13760
I          5.66500        1.87040        0.13900
H          3.57640        3.14610       -0.92770
H          3.72640        2.94620        2.05610
H          1.32040        3.85120        0.40040
H          1.67780        4.14980        2.20540
H          3.54630       -0.55810        0.16640
F         -0.38320        1.31450       -2.55310
H          1.20780        0.05290       -2.70010
H          1.52880        1.79650       -3.05910
