18
TSA8_9_OH_CH2F_I
C          2.93270        1.07820       -0.35050
C          1.42720        1.35560       -0.68470
O          3.05220        0.55050        0.94540
H          3.37640        0.34990       -1.06870
C          1.15300        1.14670       -2.17470
C          3.69160        2.40590       -0.42790
C          3.10110        3.41710        0.57040
C          1.61070        3.13760        0.83310
O          0.97950        2.67030       -0.33790
I          5.80050        2.17590       -0.12690
H          3.55230        2.81180       -1.45280
H          3.61140        3.39750        1.55760
H          1.12090        4.06700        1.18930
H          1.47730        2.39120        1.64930
H          2.68230       -0.37020        0.91050
F         -0.19460        1.32490       -2.42890
H          1.43150        0.11330       -2.47010
H          1.73520        1.86850       -2.78570
