14
TSA8_9_F_Br_Cl
C          2.14360       -0.04250        0.14120
C          1.35110       -0.76950        0.93020
F          2.28910       -0.35810       -1.17260
H          2.68040        0.81260        0.54080
Br         1.17820       -0.27300        2.78150
C         -0.59000       -4.98270        0.42930
C         -0.75230       -3.67310        0.21320
C         -0.16820       -2.63720        1.12790
O          0.68650       -1.83150        0.40790
Cl        -1.29540       -6.15600       -0.67040
H         -0.02390       -5.34300        1.28290
H         -1.32440       -3.33920       -0.64780
H          0.38440       -3.11080        1.96980
H         -1.00070       -2.02750        1.54110
