14
TSA8_9_F_Br_Cl
C          1.41860       -2.07010       -0.08440
C          0.99620       -1.04870        0.98130
F          0.88780       -1.68040       -1.30360
H          2.52520       -2.09060       -0.17810
Br         1.96620       -1.20410        2.66790
C          0.88250       -3.45270        0.30090
C         -0.62710       -3.35750        0.51750
C         -0.91220       -2.27250        1.56400
O         -0.41310       -1.00700        1.15530
Cl         1.25450       -4.65700       -0.96100
H          1.36050       -3.78780        1.24700
H         -1.13590       -3.09020       -0.43490
H         -0.50620       -2.56190        2.55750
H         -2.01220       -2.19260        1.68690
