16
TSA8_9_H_I_NH2
C          2.96270       -1.68820       -0.57780
C          1.44680       -1.37690       -0.72620
H          3.55590       -0.78050       -0.82280
H          3.19870       -1.96950        0.47090
I          0.31020       -2.72200        0.49440
C          3.32640       -2.78950       -1.57550
C          3.02910       -2.30210       -3.01100
C          1.93140       -1.22140       -3.02060
O          0.93940       -1.50260       -2.05760
N          4.72200       -3.20210       -1.43040
H          2.67300       -3.66360       -1.35840
H          3.91730       -1.85520       -3.50980
H          1.47890       -1.16790       -4.03240
H          2.36340       -0.21340       -2.82060
H          5.35800       -2.39780       -1.63700
H          4.92660       -3.97480       -2.10560
