26
TSA8_9_I_Et_Et
C          3.19430       -1.50920       -0.72810
C          1.65920       -1.61950       -0.44910
I          3.55820        0.52860       -1.33740
H          3.77090       -1.64270        0.21230
C          1.32520       -2.19760        0.93620
C          3.57670       -2.59630       -1.76060
C          2.75740       -2.41670       -3.05310
C          1.34310       -1.89690       -2.73620
O          0.93550       -2.33040       -1.45570
C          5.08380       -2.85240       -2.00410
H          3.21810       -3.55120       -1.31800
H          3.21020       -1.72990       -3.79750
H          0.63580       -2.25790       -3.51080
H          1.30190       -0.78510       -2.78820
C          1.76460       -3.65190        1.11100
H          0.22490       -2.13990        1.08080
H          1.80490       -1.57300        1.72010
H          1.28200       -4.29870        0.34860
H          1.46530       -4.00880        2.11870
H          2.86720       -3.74480        1.02840
C          5.88690       -1.71560       -2.63320
H          5.17160       -3.73640       -2.67340
H          5.56110       -3.11660       -1.03510
H          5.46680       -1.41660       -3.61430
H          6.93000       -2.06040       -2.79660
H          5.94080       -0.84390       -1.95640
