19
TSA8_9_OH_NH2_NO2
C          1.82430        0.07470       -0.17440
C          1.45680        0.95630       -1.13190
O          2.12210        0.44650        1.08580
H          1.87210       -0.98360       -0.41890
N          1.14070        0.46090       -2.42340
C          4.03850        3.50490       -0.95660
C          3.34570        3.07120        0.11280
C          1.84100        3.07690        0.10530
O          1.35830        2.30610       -0.93820
N          5.46030        3.51560       -0.99170
H          3.49540        3.86170       -1.82790
H          3.86200        2.71200        0.99780
H          1.49840        4.12270       -0.04200
H          1.42550        2.73470        1.07530
H          2.36240       -0.21300        1.75110
H          0.86490        1.11480       -3.17000
H          1.19570       -0.54510       -2.64200
O          6.10470        3.13310       -0.06170
O          6.07690        3.95360       -2.06830
