17
TSA8_9_Br_CCl3_Cl
C          3.12750       -1.10440       -1.15710
C          1.64550       -1.48670       -0.90940
Br         3.19030        0.83920       -1.32600
H          3.78290       -1.28440       -0.28010
C          1.33170       -2.79210       -0.14150
C          3.70430       -1.76950       -2.42220
C          2.62200       -2.04540       -3.47880
C          1.41110       -1.12820       -3.28810
O          0.76740       -1.30000       -2.02640
Cl         4.56870       -3.28720       -2.03970
H          4.47990       -1.09330       -2.83920
H          2.23710       -3.08050       -3.39100
H          0.67820       -1.38210       -4.08210
H          1.68490       -0.06570       -3.44470
Cl         1.59270       -4.27660       -1.08710
Cl         2.28780       -2.89510        1.36050
Cl        -0.38490       -2.76530        0.33510
