20
TSA8_9_NH2_CN_CCl3
C          1.63330        0.03750        0.04940
C          1.51260        0.08510        1.40380
N          1.54410       -1.12560       -0.76570
H          1.67230        0.98110       -0.48740
C          1.39580        1.38480        2.01150
C          4.10360       -3.13810        3.19290
C          3.31990       -2.05630        3.07420
C          2.06940       -2.16890        2.24920
O          1.39920       -0.96740        2.26160
C          5.40560       -3.21850        3.94840
H          3.77890       -4.04690        2.69680
H          3.56840       -1.10800        3.54930
H          1.41310       -2.95260        2.69130
H          2.35870       -2.47220        1.23450
H          1.18450       -2.02250       -0.41790
H          1.53110       -0.99210       -1.78880
N          1.29850        2.41840        2.52140
Cl         5.23450       -4.43200        5.23700
Cl         6.66680       -3.77120        2.82050
Cl         5.94610       -1.68140        4.68230
