19
TSA8_9_H_NO2_CCl3
C          2.32500        2.34670       -0.41030
C          1.13670        2.71960       -1.27660
H          2.02150        1.39550        0.08170
H          3.20830        2.12590       -1.04630
N          0.74830        1.89660       -2.28880
C          2.73070        3.36550        0.69380
C          3.60900        2.62530        1.68720
C          3.24930        2.45420        2.96370
O          0.49550        3.73500       -1.04630
C          3.50090        4.62850        0.17850
H          1.80610        3.69430        1.21970
H          4.55830        2.21370        1.35630
H          2.30890        2.84340        3.34130
H          3.90250        1.91640        3.64300
O         -0.19930        2.17300       -2.96170
O          1.41060        0.78630       -2.53820
Cl         2.56480        5.64590       -0.94530
Cl         3.92050        5.68570        1.55780
Cl         5.02520        4.19300       -0.65220
