20
TSA8_9_F_CHF2_CF3
C          3.02990       -0.11510       -2.07860
C          1.57940       -0.16910       -1.65790
F          3.83220       -0.10660       -0.94900
H          3.25410       -1.04020       -2.65330
C          0.71610       -1.33250       -2.05430
C          3.33670        1.10760       -2.97930
C          3.16240        2.40400       -2.21580
C          2.27350        3.33220       -2.58290
O          1.10170        0.72930       -0.98130
C          4.76810        1.03900       -3.54700
H          2.64000        1.07470       -3.84820
H          3.78100        2.59010       -1.34160
H          1.63750        3.18840       -3.44880
H          2.18000        4.24860       -2.01010
F          0.66200       -1.42470       -3.43310
F          1.24400       -2.50160       -1.53830
H         -0.31600       -1.20350       -1.66360
F          5.70650        1.05800       -2.52960
F          4.93100       -0.12000       -4.28610
F          4.99200        2.12090       -4.38110
