20
TSA8_9_Br_NO2_OMe
C          1.96470       -0.09950       -0.30590
C          1.41340       -0.24210       -1.54280
Br         2.67680        1.47880        0.52590
H          2.02120       -0.96240        0.34870
N          0.92200       -1.52650       -1.93430
C          4.04470        3.10390       -2.73320
C          3.31500        1.97790       -2.64310
C          1.81880        2.03800       -2.49240
O          1.28010        0.76670       -2.45940
O          5.39870        3.11030       -2.87750
H          3.53770        4.06340       -2.69080
H          3.79300        1.00420       -2.68050
H          1.40700        2.56060       -3.38130
H          1.50480        2.61960       -1.60350
O          0.43690       -1.66910       -3.01600
O          1.00210       -2.56480       -1.12830
C          6.20730        1.99520       -2.97130
H          7.26180        2.31960       -3.08430
H          5.92550        1.39200       -3.86080
H          6.12200        1.37940       -2.05060
