17
TSA8_9_I_CHF2_I
C          3.02410       -1.13090       -1.11230
C          1.53370       -1.38090       -1.08250
I          3.44960        0.62720        0.05800
H          3.51110       -1.98540       -0.59410
C          0.99870       -2.66200       -0.50530
C          3.65280       -1.07530       -2.53130
C          3.25850        0.11250       -3.38190
C          2.05630        0.24250       -3.94960
O          0.75490       -0.52890       -1.48030
I          5.79800       -1.07750       -2.34150
H          3.42370       -2.01170       -3.08510
H          3.99770        0.88190       -3.58470
H          1.28760       -0.51140       -3.83310
H          1.84230        1.10900       -4.56710
F         -0.38520       -2.67730       -0.54250
F          1.48070       -3.73550       -1.23070
H          1.32860       -2.75740        0.55050
