17
TSA8_9_I_CHF2_I
C          3.04970       -0.86120       -1.24930
C          1.49960       -1.02530       -1.37140
I          3.50720        1.14280       -0.60130
H          3.45490       -1.51440       -0.44590
C          1.01310       -2.31680       -0.71100
C          3.69600       -1.21220       -2.59600
C          3.12570       -0.33090       -3.71760
C          1.65650        0.03190       -3.44260
O          1.02360       -1.00000       -2.71950
I          5.83970       -1.16300       -2.57760
H          3.41410       -2.26270       -2.82390
H          3.68570        0.61850       -3.85950
H          1.13400        0.20680       -4.40550
H          1.57600        0.98870       -2.87850
F         -0.36730       -2.37460       -0.76750
F          1.54060       -3.42190       -1.35520
H          1.32100       -2.33390        0.35580
