21
TSA8_9_Et_CN_Cl
C          1.59330       -0.08280        0.08300
C          1.41200       -1.41050        0.27550
C          1.75830        0.61460       -1.24350
H          1.64050        0.56180        0.95810
C          1.26770       -1.89470        1.62180
C          0.08660       -2.76850       -4.05950
C          0.90320       -2.72010       -3.00430
C          0.35310       -2.39910       -1.65290
O          1.36090       -2.33060       -0.71810
Cl         0.71840       -3.13000       -5.65450
H         -0.97630       -2.56880       -3.94370
H          1.96570       -2.90640       -3.12960
H         -0.35070       -3.20140       -1.34390
H         -0.20610       -1.45000       -1.71140
C          3.18320        1.12840       -1.34880
H          1.04040        1.46510       -1.29020
H          1.56620       -0.04150       -2.11360
H          3.41950        1.79240       -0.49030
H          3.32120        1.69050       -2.29540
H          3.87400        0.25760       -1.34260
N          1.10380       -2.30370        2.69200
