14
TSA8_9_I_I_I
C          1.62480        0.46280        0.34660
C          2.34150        1.56730        0.05360
I          2.46730       -1.38750        0.94540
H          0.54580        0.46680        0.27480
I          4.45810        1.57680        0.16070
C         -0.50500        4.38990        1.59410
C         -0.04410        3.22540        1.12400
C          0.42040        3.07570       -0.30250
O          1.76380        2.73940       -0.33950
I         -1.12940        4.56450        3.60230
H         -0.56130        5.26900        0.95920
H          0.00160        2.36910        1.78840
H          0.29670        4.03780       -0.84450
H         -0.18900        2.31890       -0.83790
