14
TSA8_9_I_I_I
C          1.21840        1.52490        1.09330
C          2.02920        1.81280       -0.18310
I          2.34330        0.43910        2.56580
H          0.38330        0.85900        0.78420
I          3.78820        3.00950        0.13860
C          0.63760        2.83760        1.64090
C          0.16150        3.73530        0.48900
C          0.03850        2.98790       -0.84590
O          1.25760        2.36820       -1.25150
I         -0.94720        2.43630        3.03350
H          1.41650        3.41780        2.17900
H         -0.72170        4.35240        0.76060
H         -0.23980        3.73300       -1.61900
H         -0.77330        2.23010       -0.79870
