17
TSA8_9_F_H_Me
C          0.70450        0.37440        2.07470
C          1.53940        1.07990        1.04290
F          1.54960       -0.33080        2.91550
H          0.03720       -0.35040        1.55850
H          1.40430        0.85290       -0.00950
C         -0.14870        1.36590        2.89490
C         -1.09550        2.12150        1.98870
C         -1.04990        3.45160        1.86730
O          2.37490        1.90500        1.37810
C         -0.96370        0.62700        3.96230
H          0.53420        2.07330        3.41840
H         -1.83490        1.56660        1.41740
H         -0.32550        4.04250        2.41910
H         -1.74490        3.95900        1.20630
H         -0.28960        0.08430        4.65870
H         -1.65660       -0.10490        3.49320
H         -1.55920        1.35280        4.55690
