19
TSA8_9_I_OH_OMe
C          2.94050       -1.42740        0.57210
C          1.48110       -1.71240        0.82090
I          3.13070        0.48350       -0.39630
H          3.42500       -1.32490        1.56830
O          1.04410       -1.88090        2.08710
C          3.72960       -2.53470       -0.17710
C          3.26770       -2.79970       -1.59780
C          2.12960       -3.43290       -1.89550
O          0.68130       -1.73250       -0.10200
O          5.08510       -2.11570       -0.22130
H          3.61940       -3.47450        0.41930
H          3.91660       -2.50690       -2.41880
H          1.46440       -3.79840       -1.12210
H          1.86770       -3.61350       -2.93290
H          0.10950       -2.04340        2.28180
C          5.95720       -3.22390       -0.14550
H          5.98850       -3.62400        0.89100
H          6.97910       -2.88430       -0.41130
H          5.68590       -4.01870       -0.87650
