21
TSA8_9_CH2F_CF3_CN
C          2.38680       -1.07270        1.07620
C          1.44950        0.02460        1.60170
C          1.91480       -1.52610       -0.32610
H          3.36710       -0.56740        0.93160
C          1.87530        1.47470        1.69550
C          2.58060       -2.31940        2.03960
C          1.77220       -2.26400        3.31220
C          0.47120       -2.57930        3.29920
O          0.28710       -0.24070        1.86380
C          3.98550       -2.62130        2.36830
H          2.26860       -3.25280        1.52270
H          2.24090       -1.98350        4.25200
H         -0.11680       -2.53660        4.20650
H         -0.01170       -2.87540        2.37170
F          3.00570       -1.74070       -1.15010
H          1.28320       -0.74970       -0.80790
H          1.29780       -2.44910       -0.28500
F          2.21930        1.78160        2.99800
F          2.94750        1.74760        0.86420
F          0.82150        2.28700        1.31120
N          5.08020       -2.89980        2.60450
