21
TSA8_9_CH2F_CF3_CN
C          1.61500       -0.00330        0.04290
C          1.53820        0.28440        1.45740
C          1.65670       -1.24330       -0.76850
H          1.47870        0.85340       -0.63150
C          1.67020        1.75380        1.80810
C          2.61430       -3.67980        3.11230
C          2.33500       -2.36480        3.12090
C          1.01220       -1.82660        2.57940
O          0.91410       -0.44260        2.49390
C          3.91200       -4.13360        3.56910
H          1.88950       -4.40080        2.73730
H          3.09740       -1.70740        3.51770
H          0.23920       -2.20840        3.25360
H          0.77500       -2.26920        1.60670
F          2.97640       -1.10420       -1.14030
H          1.08650       -1.30700       -1.72060
H          1.52900       -2.21490       -0.27630
F          2.15310        1.90850        3.09780
F          2.53750        2.40460        0.94450
F          0.43020        2.35720        1.72620
N          4.95800       -4.46540        3.94050
