17
TSA8_9_Me_F_F
C          1.61690       -1.02250        1.35490
C          1.05790        0.37580        1.23030
C          1.39000       -1.79420        0.04480
H          2.71730       -0.92580        1.48740
F          1.88630        1.44350        1.35800
C          1.10420       -1.81210        2.59380
C         -0.39360       -2.00310        2.68900
C         -1.21850       -1.01610        3.05170
O         -0.11590        0.56270        0.95060
F          1.70000       -3.06170        2.58800
H          1.44040       -1.30470        3.52510
H         -0.81090       -2.99060        2.51580
H         -0.84190       -0.02610        3.28700
H         -2.28550       -1.20020        3.13840
H          0.30730       -1.94520       -0.14650
H          1.88830       -2.78530        0.08880
H          1.83130       -1.23200       -0.80600
