17
TSA8_9_Me_Br_Cl
C          1.62640       -0.56820        1.51260
C          0.97810        0.65840        0.91260
C          1.41460       -1.77730        0.58550
H          2.72110       -0.37920        1.56640
Br         2.04800        2.16680        0.42610
C          1.13470       -0.80820        2.96480
C         -0.34280       -1.11140        3.05450
C         -1.18560       -0.32360        3.72960
O         -0.22770        0.70130        0.72210
Cl         2.03610       -2.14900        3.72790
H          1.37200        0.10610        3.55380
H         -0.73670       -1.99570        2.56320
H         -0.83640        0.56980        4.23830
H         -2.24090       -0.57200        3.77550
H          0.33670       -2.01270        0.46560
H          1.93550       -2.67330        0.98180
H          1.83520       -1.55790       -0.41940
