21
TSA8_9_I_CH2F_OMe
C          2.92930       -0.65190        0.90170
C          1.54580       -0.50800        1.49550
I          2.87210       -0.03650       -1.15850
H          3.59680        0.07040        1.42260
C          1.31060        0.40600        2.66040
C          3.59590       -2.04490        1.06630
C          2.86760       -3.18660        0.38090
C          1.72440       -3.70600        0.83720
O          0.59540       -1.09420        0.99870
O          4.89770       -1.94870        0.50900
H          3.64770       -2.25500        2.16350
H          3.32100       -3.64300       -0.49460
H          1.25020       -3.33050        1.73690
H          1.26460       -4.53990        0.31680
F          2.05620       -0.01980        3.74360
H          0.23620        0.41090        2.94360
H          1.61090        1.43970        2.38980
C          5.80070       -2.79960        1.18510
H          6.10530       -2.34870        2.15420
H          6.70810       -2.91590        0.55780
H          5.38710       -3.82280        1.33210
