21
TSA8_9_I_CH2F_OMe
C          2.92130       -0.70650        0.90420
C          1.45660       -0.83050        1.43490
I          2.88470       -0.45500       -1.23250
H          3.40710        0.21700        1.28880
C          1.18250        0.12550        2.59420
C          3.72790       -1.94270        1.32370
C          3.02740       -3.22390        0.81470
C          1.49710       -3.06930        0.83580
O          1.11320       -2.15630        1.83910
O          5.06130       -1.83540        0.85500
H          3.70400       -1.93690        2.43840
H          3.32730       -3.51470       -0.21540
H          1.02800       -4.05900        1.01090
H          1.11770       -2.72380       -0.15430
F          1.98610       -0.18210        3.67860
H          0.11830        0.04370        2.89700
H          1.37530        1.17190        2.27710
C          5.87270       -2.86130        1.39130
H          6.92200       -2.50050        1.41410
H          5.82890       -3.75980        0.74020
H          5.61590       -3.12840        2.44180
