24
TSA8_9_OMe_I_Et
C          2.73910       -0.48040        1.29630
C          1.42680        0.27110        1.26430
O          2.63140       -1.65300        0.50630
H          3.53720        0.20450        0.92130
I          1.36490        2.25870        0.55330
C          3.12870       -0.84660        2.75550
C          2.18450       -1.88030        3.33950
C          1.41770       -1.62250        4.40300
O          0.39100       -0.26010        1.63260
C          4.60200       -1.30750        2.89890
H          3.06500        0.09300        3.35230
H          2.12160       -2.86300        2.88280
H          1.44160       -0.65500        4.89400
H          0.75330       -2.38940        4.78850
C          2.87540       -1.36420       -0.85380
H          3.96000       -1.19850       -1.02960
H          2.27200       -0.50160       -1.21520
H          2.56160       -2.24030       -1.45730
C          4.98550       -2.58510        2.14760
H          4.80990       -1.46990        3.97970
H          5.26960       -0.48900        2.55170
H          4.37000       -3.44540        2.48040
H          6.05030       -2.82060        2.35720
H          4.88610       -2.45180        1.05330
