17
TSA8_9_Br_H_CF3
C          2.03260        0.01790        0.31600
C          1.24640       -0.35790        1.34520
Br         3.23330       -1.06630       -0.71490
H          1.97050        1.05150       -0.00990
H          0.60100        0.40820        1.76310
C          3.08370       -1.89290        4.08240
C          3.25910       -2.21770        2.78920
C          2.08130       -2.61940        1.94140
O          1.14920       -1.59720        1.90400
C          4.20380       -1.48630        4.99960
H          2.08290       -1.92260        4.50540
H          4.24750       -2.20260        2.33850
H          1.61050       -3.50790        2.41260
H          2.38490       -2.93130        0.92960
F          5.42650       -1.47980        4.35150
F          3.94820       -0.21900        5.48820
F          4.26230       -2.37270        6.05820
