23
TSA8_9_NH2_OMe_CF3
C          3.49660        0.99420       -0.43210
C          2.28490        1.11570       -1.32930
N          3.18850        0.17930        0.74810
H          4.27890        0.46480       -1.01960
O          2.35060        0.61650       -2.59030
C          4.07050        2.38970       -0.04640
C          3.11560        3.18120        0.82760
C          2.58820        4.34390        0.43310
O          1.26450        1.65600       -0.92380
C          5.43570        2.27210        0.66010
H          4.25220        2.94090       -0.99760
H          2.85350        2.80160        1.81070
H          2.82040        4.76740       -0.53880
H          1.91240        4.88120        1.09080
H          2.38360        0.58350        1.27750
H          2.91660       -0.78300        0.44140
C          1.33350        0.71610       -3.51420
H          1.64610        0.21380       -4.45280
H          1.12400        1.78460       -3.73420
H          0.41540        0.22210       -3.13110
F          5.31950        1.59120        1.85940
F          6.33490        1.60170       -0.15130
F          5.94000        3.53600        0.91360
