23
TSA8_9_NH2_OMe_CF3
C          1.59990       -0.03590        0.04640
C          1.70540        0.78960       -1.02560
N          1.51390        0.33740        1.41290
H          1.55460       -1.10260       -0.15970
O          1.72780        0.18120       -2.23810
C          4.77300        3.54260       -0.26160
C          3.79710        2.69940        0.11400
C          2.34420        3.03520       -0.09280
O          1.79840        2.15690       -1.00970
C          6.23570        3.22510       -0.11170
H          4.51480        4.49720       -0.71220
H          4.03840        1.73790        0.55570
H          2.24270        4.05470       -0.52130
H          1.78510        3.07710        0.85120
H          1.46470        1.29770        1.74940
H          1.43260       -0.40620        2.12070
C          1.96500        0.85250       -3.41890
H          1.93560        0.13220       -4.26160
H          2.97170        1.32420       -3.39040
H          1.19170        1.63320       -3.58310
F          6.44130        1.98090        0.45990
F          6.82710        3.24330       -1.36130
F          6.82970        4.18700        0.68180
