23
TSA8_9_Me_CHF2_CBr3
C          2.58110        0.17940       -1.71480
C          1.34070       -0.46000       -2.31350
C          2.19710        0.87150       -0.39640
H          3.28710       -0.63100       -1.43440
C          1.22960       -1.95790       -2.41220
C          3.34180        1.17490       -2.66050
C          2.47480        2.36610       -3.03490
C          2.76860        3.60950       -2.64150
O          0.40180        0.23610       -2.67210
C          3.96090        0.53630       -3.94090
H          4.21100        1.53850       -2.06580
H          1.58900        2.21720       -3.64310
H          2.12580        4.43450       -2.93070
H          3.64330        3.81610       -2.03290
H          1.47640        1.69870       -0.56900
H          3.10220        1.28450        0.09820
H          1.73150        0.13870        0.29720
F          0.00950       -2.32310       -2.95400
F          2.24220       -2.46460       -3.20330
H          1.31380       -2.39710       -1.39620
Br         5.06470        1.84820       -4.86020
Br         5.14710       -0.93940       -3.50060
Br         2.65240       -0.09050       -5.23900
