22
TSA8_9_CCl3_NH2_CBr3
C          1.45790       -0.92840        1.81510
C          2.88540       -1.01910        2.33780
C          1.37980       -1.32000        0.28560
H          1.23760        0.16450        1.77100
N          3.57800       -2.18420        2.33790
C          0.37270       -1.44490        2.86760
C         -1.00200       -1.47620        2.23390
C         -1.96990       -0.61630        2.56760
O          3.44000       -0.00170        2.72720
C          0.57460       -2.75960        3.70930
H          0.37490       -0.65800        3.65750
H         -1.21450       -2.23320        1.48490
H         -1.80700        0.15440        3.31390
H         -2.94030       -0.68460        2.08680
Cl         1.48700       -3.05590       -0.07830
Cl        -0.09960       -0.69690       -0.50450
Cl         2.71010       -0.52900       -0.61570
H          4.55030       -2.21160        2.67900
H          3.15780       -3.06080        2.00720
Br        -0.92650       -2.98780        4.93470
Br         0.66170       -4.41060        2.70100
Br         2.09220       -2.67700        4.92460
