22
TSA8_9_CCl3_NH2_CBr3
C          1.44570       -0.36960        0.11220
C          2.06570       -0.94770        1.17550
C          2.01020       -0.24340       -1.28520
H          0.46290        0.06050        0.26640
N          3.37200       -1.49910        1.07370
C         -0.70390       -2.00110        4.81810
C         -0.12590       -2.19720        3.62280
C          0.10620       -1.07320        2.65700
O          1.46420       -1.00380        2.39670
C         -0.90960       -3.12950        5.79550
H         -1.03270       -1.00300        5.09530
H          0.19730       -3.19380        3.33430
H         -0.23560       -0.10400        3.08020
H         -0.47930       -1.29140        1.73920
Cl         2.29320       -1.85200       -2.00370
Cl         0.83990        0.61020       -2.32540
Cl         3.52010        0.71000       -1.29150
H          3.80480       -1.92630        1.90530
H          3.90520       -1.51700        0.19620
Br        -1.80590       -2.47400        7.38410
Br        -2.00060       -4.53220        5.01700
Br         0.80160       -3.87200        6.32910
