19
TSA8_9_Br_Me_NO2
C          3.05930       -1.09120        1.27320
C          1.56160       -0.90210        1.34120
Br         3.74670       -0.08050       -0.24760
H          3.50740       -0.64740        2.18950
C          0.93860       -0.23620        2.53130
C          3.44830       -2.59350        1.24750
C          2.96300       -3.29400       -0.00480
C          2.09680       -4.31100        0.04100
O          0.84930       -1.28300        0.42400
N          4.88660       -2.76130        1.37000
H          2.97400       -3.06180        2.14130
H          3.33000       -2.96530       -0.97270
H          1.70400       -4.67450        0.98530
H          1.77390       -4.78840       -0.87830
H          1.17280       -0.81710        3.44770
H         -0.16490       -0.17710        2.41660
H          1.34290        0.79230        2.63630
O          5.62660       -2.35650        0.52420
O          5.38410       -3.39160        2.41240
