19
TSA8_9_Br_Me_NO2
C          3.06560       -1.22920        1.05680
C          1.50290       -1.23020        1.11290
Br         3.64340       -0.82490       -0.76400
H          3.47990       -0.40970        1.68460
C          1.00880       -0.51790        2.37020
C          3.56390       -2.59600        1.55870
C          3.00220       -3.72110        0.67150
C          1.59010       -3.37010        0.16930
O          0.92600       -2.54050        1.09740
N          5.01060       -2.67170        1.67150
H          3.12730       -2.73110        2.57410
H          3.62730       -3.93650       -0.22470
H          1.01720       -4.30720        0.01160
H          1.62420       -2.86530       -0.82220
H          1.37910       -1.03330        3.28210
H         -0.10130       -0.51080        2.38460
H          1.36380        0.53450        2.37450
O          5.70640       -2.56950        0.70590
O          5.56080       -2.87260        2.84920
