15
TSA8_9_I_CN_Cl
C          1.48140       -1.84490        0.76080
C          2.41040       -1.25330        1.78610
I          2.35370       -1.82270       -1.21140
H          0.62740       -1.13910        0.68930
C          1.94290       -0.14100        2.56370
C          0.94790       -3.22820        1.23650
C         -0.51230       -3.38890        0.89910
C         -1.41910       -2.60920        1.50790
O          3.47850       -1.78810        2.04630
Cl         1.91390       -4.60670        0.62610
H          0.98970       -3.29560        2.34640
H         -0.84560       -4.14490        0.19660
H         -1.10610       -1.86560        2.24060
H         -2.47670       -2.71290        1.30020
N          1.55210        0.76580        3.17780
