15
TSA8_9_I_CN_Cl
C          1.70440       -0.00250        0.07780
C          1.63060       -0.68870        1.25100
I          1.81210       -0.97800       -1.80170
H          1.49450        1.07270       -0.00830
C          1.34990       -0.03280        2.51400
C          0.08440       -5.00870        2.07410
C          0.32440       -4.03570        1.19390
C          0.39460       -2.60500        1.60220
O          1.60410       -2.03410        1.22670
Cl         0.01850       -6.67690        1.54100
H         -0.06270       -4.78370        3.12520
H          0.45870       -4.27020        0.14350
H          0.21180       -2.48220        2.69610
H         -0.43320       -2.08220        1.05840
N          1.12630        0.50710        3.51280
