26
TSA8_9_CBr3_Et_CCl3
C          1.60320       -0.08970        0.10530
C          1.39250       -1.08820       -0.78530
C          1.94170        1.36570       -0.17770
H          1.55260       -0.32930        1.16540
C          1.04440       -2.47650       -0.24570
C          4.25170       -2.60660       -2.99400
C          3.48120       -1.50740       -3.03320
C          1.98060       -1.55610       -3.14240
O          1.44030       -0.80940       -2.11650
C          5.75790       -2.58890       -2.85100
H          3.78400       -3.58240       -3.06350
H          3.92290       -0.51890       -2.98380
H          1.54730       -2.57460       -3.18440
H          1.71240       -1.05630       -4.09600
Br         0.63860        2.47600        0.72310
Br         3.67810        1.72850        0.59570
Br         2.00940        1.96220       -2.03130
C          2.09320       -3.55640       -0.48740
H          0.06650       -2.79680       -0.66330
H          0.92100       -2.42860        0.85850
H          2.18190       -3.81570       -1.55020
H          1.78040       -4.48700        0.03230
H          3.07760       -3.23880       -0.08400
Cl         6.19110       -3.48750       -1.37750
Cl         6.47770       -3.41290       -4.25290
Cl         6.48530       -0.95710       -2.73090
