26
TSA8_9_CBr3_Et_CCl3
C          2.97190       -0.88910       -0.79960
C          1.49430       -1.28670       -1.05830
C          3.03200        0.65930       -0.53520
H          3.27240       -1.33640        0.17270
C          0.87390       -2.49610       -0.32630
C          3.83000       -1.57520       -1.93540
C          3.22930       -1.30180       -3.32270
C          1.75100       -1.69760       -3.34300
O          1.00460       -1.00850       -2.36110
C          5.37410       -1.40370       -1.95100
H          3.69010       -2.66330       -1.77250
H          3.35470       -0.24760       -3.62640
H          1.62750       -2.79100       -3.24250
H          1.34170       -1.43820       -4.34130
Br         1.73770        1.12720        0.84660
Br         4.70560        1.25390        0.24720
Br         2.61180        1.79630       -2.05340
C          1.57510       -3.83930       -0.52450
H         -0.19330       -2.58220       -0.62180
H          0.90250       -2.27260        0.76140
H          1.56660       -4.16430       -1.58010
H          1.04310       -4.61380        0.06690
H          2.61800       -3.79320       -0.14970
Cl         6.08180       -1.78460       -0.35720
Cl         6.07970       -2.57370       -3.10440
Cl         5.92020        0.20590       -2.50260
