24
TSA8_9_OMe_NO2_OMe
C          0.75330       -0.43910       -1.60480
C          1.40260       -1.79970       -1.21750
O          1.76560        0.55520       -1.58420
H         -0.09420       -0.23150       -0.90270
N          1.59360       -1.91860        0.21490
C          0.16150       -0.58730       -3.01380
C         -0.90790       -1.70860       -2.99120
C         -0.61740       -2.75950       -1.90710
O          0.77120       -2.96010       -1.77060
O         -0.38680        0.64630       -3.44510
H          1.01470       -0.89250       -3.66530
H         -1.93090       -1.31980       -2.79560
H         -1.11860       -3.71260       -2.17490
H         -1.04820       -2.44620       -0.92780
C          1.31390        1.73360       -0.95310
H          0.56900        2.26100       -1.58610
H          2.18240        2.41100       -0.82120
H          0.91770        1.53340        0.06730
O          1.14460       -2.84850        0.81390
O          2.30020       -1.01470        0.86020
C         -0.76640        0.58150       -4.80490
H         -0.00800        0.07620       -5.44390
H         -0.85890        1.61730       -5.19080
H         -1.76010        0.09470       -4.90670
