20
TSA8_9_CCl3_Br_CCl3
C          1.48200       -0.29130       -0.45220
C          2.12720       -1.48040       -0.36220
C          2.11760        1.01980       -0.86000
H          0.43020       -0.25780       -0.19780
Br         4.00260       -1.67680       -0.72370
C          0.15240       -4.77710       -2.21410
C          0.38710       -3.50050       -1.86560
C          0.24150       -3.03000       -0.44170
O          1.47500       -2.61170        0.01960
C          0.34880       -5.26900       -3.62450
H         -0.17360       -5.48490       -1.45660
H          0.71870       -2.78600       -2.61370
H         -0.10140       -3.86710        0.20350
H         -0.52490       -2.23140       -0.37050
Cl         2.70820        0.93750       -2.54000
Cl         0.90170        2.32140       -0.77500
Cl         3.45350        1.47040        0.23480
Cl        -0.05100       -7.00310       -3.72130
Cl        -0.70450       -4.38170       -4.75600
Cl         2.05100       -5.06000       -4.11530
