20
TSA8_9_CCl3_Br_CCl3
C          1.34740       -1.66400       -1.32880
C          1.81140       -1.88510        0.16890
C          2.23750       -0.60030       -2.06390
H          0.34970       -1.17520       -1.28450
Br         3.67570       -2.40000        0.39290
C          1.13540       -3.09890       -1.93910
C          0.08540       -3.83840       -1.05310
C         -0.14100       -3.19640        0.32210
O          1.07180       -2.83620        0.93010
C          0.74210       -3.27960       -3.44370
H          2.09970       -3.63650       -1.80750
H         -0.92110       -3.89370       -1.52230
H         -0.67370       -3.92540        0.96700
H         -0.80370       -2.30430        0.25580
Cl         3.86390       -1.17280       -2.53650
Cl         1.43310        0.05110       -3.51810
Cl         2.45750        0.83220       -1.01540
Cl         0.45190       -5.01010       -3.80170
Cl        -0.75250       -2.38970       -3.85720
Cl         2.03610       -2.82430       -4.58160
