14
TSA8_9_I_Br_H
C          1.84020        0.16430        0.04710
C          1.44090        1.40980        0.37250
I          2.30430       -1.45890        1.33070
H          1.89920       -0.09480       -1.00530
Br         0.98870        2.59840       -1.05720
C          3.89720        3.54820        3.06620
C          3.46730        2.49810        2.35720
C          2.18610        1.78320        2.69160
O          1.30080        1.89520        1.63710
H          4.82360        4.04410        2.79230
H          3.33320        3.92370        3.91320
H          4.05810        2.15360        1.51410
H          1.71090        2.24080        3.58600
H          2.39540        0.73550        2.95370
