20
TSA8_9_CF3_CN_NO2
C          1.70380       -0.08410        0.04380
C          1.54990       -1.30290       -0.53390
C          1.83820        1.21500       -0.72080
H          1.74540       -0.02160        1.11980
C          1.42680       -2.47490        0.30420
C          0.20200       -1.84710       -5.03840
C          0.63900       -1.11340       -4.00740
C          0.34880       -1.46750       -2.58750
O          1.52590       -1.43730       -1.86660
N          0.46460       -1.46150       -6.38410
H         -0.38670       -2.73920       -4.84850
H          1.20250       -0.20290       -4.18850
H         -0.17120       -2.44220       -2.45930
H         -0.31720       -0.66620       -2.21580
F          3.16530        1.59330       -0.72920
F          1.39210        1.14220       -2.02420
F          1.09980        2.19100       -0.07480
N          1.32780       -3.41660        0.97000
O          1.11510       -0.49510       -6.63420
O         -0.03890       -2.17550       -7.36870
