20
TSA8_9_CBr3_CBr3_Br
C          2.38500       -1.92150        0.47870
C          1.00560       -1.36020        0.95640
C          2.89130       -1.12490       -0.77010
H          3.09090       -1.76810        1.32170
C          0.80410       -0.79830        2.39720
C          2.28990       -3.45230        0.18160
C          1.20680       -4.08200        1.02980
C         -0.14270       -3.42990        0.66460
O         -0.12430       -2.02580        0.42260
Br         3.96110       -4.39010        0.52350
H          1.99000       -3.64130       -0.86950
H          1.46900       -3.96430        2.09270
H         -0.90950       -3.68520        1.42530
H         -0.45550       -3.89810       -0.29290
Br         3.05480        0.77420       -0.40910
Br         4.65110       -1.68710       -1.36830
Br         1.67590       -1.28410       -2.28590
Br         2.17240        0.48610        2.88420
Br        -0.88590        0.14790        2.46330
Br         0.76250       -2.11640        3.81670
