20
TSA8_9_CCl3_Me_H
C          0.89760       -1.02930        0.42430
C          1.61190       -1.96440       -0.54710
C          1.42580        0.43550        0.35250
H         -0.16590       -0.97500        0.09870
C          3.04920       -2.37860       -0.39880
C          0.92170       -1.60210        1.86610
C          0.34940       -2.99500        1.95000
C         -0.92120       -3.26420        1.63540
O          0.97910       -2.42480       -1.48590
H          1.96650       -1.63480        2.23890
H          0.34050       -0.94930        2.55090
H          0.99140       -3.80440        2.28510
H         -1.59620       -2.48190        1.30360
H         -1.29410       -4.28030        1.71250
Cl         1.34240        1.03930       -1.32680
Cl         0.39890        1.51680        1.33640
Cl         3.10570        0.63500        0.92630
H          3.10190       -3.48440       -0.31510
H          3.52160       -1.95490        0.50580
H          3.62360       -2.05520       -1.29170
