20
TSA8_9_CCl3_Me_H
C          0.85650       -0.94050        0.56050
C          1.44560       -2.07490       -0.32780
C          1.56220        0.44250        0.49270
H         -0.15340       -0.77840        0.12080
C          2.88880       -2.49740       -0.04150
C          0.65530       -1.45830        2.00310
C          0.25020       -2.94080        2.02450
C         -0.32670       -3.37190        0.67130
O          0.60590       -3.23250       -0.40080
H          1.58140       -1.37220        2.61030
H         -0.12730       -0.84140        2.49280
H          1.14690       -3.57410        2.19530
H         -1.25710       -2.80830        0.44380
H         -0.60220       -4.44390        0.75190
Cl         1.75910        0.95080       -1.20690
Cl         0.55640        1.67770        1.30010
Cl         3.16430        0.47770        1.28470
H          3.00330       -2.89000        0.98840
H          3.58630       -1.65560       -0.20260
H          3.18060       -3.29300       -0.75840
