20
TSA8_9_F_CH2F_CH2F
C          2.98780        2.33700       -1.12120
C          1.68860        1.54230       -0.77030
F          3.97850        2.02860       -0.20220
H          3.36780        2.03730       -2.12240
C          0.89380        1.20960       -2.03460
C          2.67230        3.83860       -1.06020
C          2.18520        4.20990        0.35730
C          1.52600        3.00870        1.05810
O          0.80990        2.22280        0.13170
C          3.84560        4.72040       -1.50540
H          1.83160        4.02260       -1.76440
H          2.99920        4.56290        1.02760
H          0.84680        3.37680        1.85440
H          2.28500        2.37590        1.57270
F         -0.20980        0.44570       -1.70220
H          1.52500        0.62570       -2.73710
H          0.55180        2.13710       -2.54010
F          4.94230        4.54560       -0.67900
H          3.54370        5.78920       -1.48190
H          4.13620        4.46350       -2.54640
