21
TSA8_9_OMe_CBr3_Cl
C          1.50650       -0.00180       -0.10830
C          1.41040       -0.24940       -1.42770
O          1.48720        1.27630        0.34310
H          1.57300       -0.80580        0.61310
C          1.42990       -1.65850       -2.01240
C         -0.13090        3.72610       -3.25350
C          0.01350        2.76910       -2.33050
C          0.09330        1.31790       -2.70200
O          1.30220        0.79860       -2.28270
Cl        -0.22840        5.41290       -2.77590
H         -0.19270        3.47980       -4.30900
H          0.06980        3.04160       -1.28070
H          0.01460        1.18080       -3.80220
H         -0.76150        0.78850       -2.22750
C          1.32510        1.57940        1.67720
H          1.42790        2.67540        1.81720
H          2.09000        1.06110        2.29410
H          0.31060        1.27390        2.00870
Br         1.80110       -3.09510       -0.74860
Br        -0.28020       -2.05720       -2.83390
Br         2.79300       -1.74810       -3.38630
