23
TSA8_9_Et_CCl3_I
C          1.54820       -0.05340        0.20590
C          1.82710       -0.43370        1.48610
C          2.02780        1.16340       -0.54050
H          0.88450       -0.69260       -0.37250
C          1.14880       -1.68710        2.01990
C          5.45470        2.23960        3.40460
C          4.43230        1.38070        3.36900
C          3.68230        1.12330        2.09590
O          2.68870        0.19720        2.34180
I          6.50310        2.58080        5.20440
H          5.76320        2.77400        2.51070
H          4.14350        0.85950        4.27750
H          4.39540        0.71570        1.34850
H          3.26450        2.08210        1.75060
C          1.26340        2.41830       -0.11090
H          1.78850        1.02220       -1.61570
H          3.12730        1.27540       -0.48060
H          0.18230        2.28680       -0.32080
H          1.62710        3.28980       -0.69650
H          1.36710        2.64150        0.96640
Cl         1.64310       -2.04690        3.70070
Cl        -0.62430       -1.48680        2.01580
Cl         1.57620       -3.10360        1.02170
