23
TSA8_9_Et_CCl3_I
C          3.20800        0.62170        0.78220
C          2.50850       -0.37880        1.75090
C          2.26300        1.49770       -0.08900
H          3.81820        0.05070        0.05010
C          1.64380       -1.50710        1.15350
C          4.20430        1.45040        1.62510
C          3.51090        2.02340        2.86650
C          2.76210        0.91730        3.62570
O          1.81530        0.30050        2.77880
I          5.87100        0.22170        2.23320
H          4.65060        2.26470        1.01520
H          4.23470        2.55190        3.52270
H          3.45490        0.16440        4.06580
H          2.22050        1.38510        4.47340
C          1.30350        2.43460        0.64920
H          1.66860        0.83450       -0.74870
H          2.89260        2.12220       -0.75960
H          0.60720        1.87210        1.30100
H          0.69430        2.98640       -0.09720
H          1.85610        3.18660        1.24560
Cl         1.29090       -2.68480        2.44200
Cl         0.08040       -0.92270        0.52270
Cl         2.51210       -2.37480       -0.13960
