23
TSA8_9_F_Me_Et
C          2.05830        0.08910       -0.26980
C          1.47520        0.90520       -1.17650
F          2.57080        0.53450        0.90540
H          2.12460       -0.97730       -0.46140
C          0.92130        0.32220       -2.44560
C          3.97070        3.50860       -1.41520
C          3.43170        3.09620       -0.25260
C          1.93860        3.07090       -0.06820
O          1.34680        2.25550       -1.01730
C          5.45090        3.56290       -1.72300
H          3.30280        3.82770       -2.21130
H          4.05190        2.77000        0.57480
H          1.55100        4.10340       -0.19760
H          1.66240        2.74110        0.95500
H          1.43740        0.78520       -3.31250
H         -0.16370        0.54520       -2.51220
H          1.05940       -0.77890       -2.50340
C          6.37310        3.08900       -0.59950
H          5.71340        4.61180       -1.97740
H          5.63780        2.92920       -2.61620
H          6.24390        3.72370        0.30270
H          7.42930        3.16490       -0.93330
H          6.16120        2.02810       -0.34710
