23
TSA8_9_F_Me_Et
C          3.19230        1.20450       -0.95790
C          1.63380        1.09220       -0.99050
F          3.62580        1.00600        0.34230
H          3.65110        0.40940       -1.58530
C          1.15250        0.52160       -2.32420
C          3.58890        2.61030       -1.44090
C          2.95640        3.67600       -0.51780
C          1.65540        3.15980        0.12290
O          0.95140        2.33160       -0.77540
C          5.10410        2.81860       -1.67410
H          3.11330        2.73870       -2.43790
H          3.60840        4.00810        0.31530
H          1.02640        4.02370        0.42090
H          1.86500        2.59670        1.06130
H          1.42370        1.19450       -3.16470
H          0.04870        0.40530       -2.30050
H          1.60180       -0.47920       -2.49640
C          5.99720        2.63210       -0.44400
H          5.26160        3.84460       -2.07340
H          5.44270        2.09870       -2.45080
H          5.73830        3.34600        0.36240
H          7.05370        2.81500       -0.73300
H          5.93160        1.59530       -0.05840
