22
TSA8_9_CBr3_NH2_CH2F
C          1.29490       -0.99320        1.75720
C          2.63870       -1.12450        2.49000
C          1.29900       -1.44660        0.24370
H          1.13400        0.10390        1.65440
N          3.65900       -1.90440        2.05400
C          0.15520       -1.50550        2.72890
C         -1.22970       -1.47190        2.12800
C         -2.18600       -0.64910        2.56790
O          2.78570       -0.50370        3.53310
C          0.38100       -2.89740        3.36110
H          0.18170       -0.80240        3.59390
H         -1.46630       -2.15500        1.31870
H         -2.00350        0.04630        3.38010
H         -3.16900       -0.67270        2.10710
Br        -0.24540       -0.77120       -0.73310
Br         2.77680       -0.59780       -0.70590
Br         1.39880       -3.35500       -0.10420
H          4.53410       -1.95840        2.59730
H          3.60100       -2.47160        1.20130
F          0.29340       -3.92330        2.44520
H         -0.39980       -3.07470        4.13220
H          1.36040       -2.95020        3.88030
