20
TSA8_9_Cl_Cl_Et
C          3.04600       -0.34290        2.02540
C          1.65490       -0.22030        1.45740
Cl         4.21100       -0.09030        0.68760
H          3.17740        0.48160        2.75890
Cl         0.58410        1.05520        2.01810
C          3.22930       -1.69240        2.77970
C          3.21340       -2.87780        1.83340
C          2.27010       -3.82270        1.89390
O          1.25800       -0.99510        0.60090
C          4.47510       -1.73830        3.70310
H          2.36710       -1.77070        3.48150
H          3.98930       -2.96970        1.07950
H          1.47250       -3.77650        2.62860
H          2.29360       -4.65590        1.19890
C          5.84380       -1.67450        3.02110
H          4.43470       -2.68920        4.27910
H          4.41130       -0.90420        4.43560
H          5.97000       -2.50800        2.30030
H          6.63560       -1.76540        3.79440
H          5.99850       -0.70460        2.51380
