20
TSA8_9_Br_Br_Et
C          3.11410       -1.81860        0.39160
C          1.66330       -1.40750        0.38150
Br         4.17240       -0.23720       -0.04410
H          3.36220       -2.12310        1.43090
Br         0.62570       -1.51150        1.98460
C          3.35370       -3.04310       -0.53930
C          3.18070       -2.68600       -2.00270
C          2.22290       -3.23240       -2.75820
O          1.13650       -0.99760       -0.64110
C          4.70260       -3.77320       -0.30370
H          2.58570       -3.79920       -0.25340
H          3.85110       -1.96500       -2.45980
H          1.52700       -3.95780       -2.34870
H          2.13090       -2.95120       -3.80230
C          5.97860       -2.99370       -0.62630
H          4.70460       -4.68930       -0.93490
H          4.75450       -4.10190        0.75740
H          5.98780       -2.66130       -1.68440
H          6.85540       -3.65580       -0.46510
H          6.10230       -2.12760        0.04890
