20
TSA8_9_Br_Br_Et
C          2.00090       -0.32790        0.14940
C          1.30630       -1.48630        0.18540
Br         3.03540        0.39960       -1.29400
H          1.97590        0.30570        1.03020
Br         0.34620       -1.87820        1.79380
C          3.65630       -4.02240       -0.86680
C          3.38660       -2.92750       -1.60120
C          1.96740       -2.57300       -1.95560
O          1.20810       -2.41370       -0.81200
C          5.03650       -4.47160       -0.43930
H          2.82670       -4.64540       -0.54130
H          4.17820       -2.27650       -1.95400
H          1.53870       -3.41050       -2.54540
H          1.91000       -1.67200       -2.59620
C          6.18840       -3.57120       -0.88730
H          5.20920       -5.49230       -0.84140
H          5.04980       -4.52590        0.67020
H          6.23400       -3.52130       -1.99580
H          7.14810       -3.98870       -0.51540
H          6.06590       -2.54950       -0.46870
