20
TSA8_9_I_CBr3_CCl3
C          1.97830        0.16010       -0.08200
C          1.56230        1.30800       -0.68710
I          2.16070       -0.34010        1.97670
H          2.26040       -0.69530       -0.67730
C          1.48010        1.41430       -2.20420
C          3.47080        4.31320        1.65350
C          2.95050        3.10210        1.39680
C          1.46660        2.88270        1.25120
O          1.18530        2.44530       -0.02710
C          4.95850        4.52560        1.76590
H          2.80790        5.16560        1.77330
H          3.61530        2.25330        1.27180
H          0.92360        3.83900        1.40650
H          1.07220        2.18610        2.01070
Br        -0.34160        1.83800       -2.70970
Br         2.62160        2.87360       -2.77470
Br         2.00880       -0.15430       -3.23820
Cl         5.30320        6.24040        2.10490
Cl         5.63300        3.54100        3.09070
Cl         5.76220        4.08330        0.23570
