20
TSA8_9_I_CBr3_CCl3
C          3.07450        1.81610        0.14010
C          1.61220        1.80430       -0.42070
I          3.23590        0.12320        1.46070
H          3.80140        1.62380       -0.67460
C          1.51860        1.69650       -1.95390
C          3.35810        3.20220        0.78130
C          2.29900        3.50720        1.86210
C          0.92170        2.96080        1.45300
O          0.82670        2.89990        0.04650
C          4.80940        3.48820        1.25870
H          3.17630        3.93160       -0.03960
H          2.54430        3.10910        2.86950
H          0.12580        3.61250        1.86930
H          0.74750        1.95120        1.89340
Br        -0.34360        1.61980       -2.48890
Br         2.34200        3.21980       -2.83300
Br         2.36080        0.06560       -2.58730
Cl         4.94970        5.20040        1.74780
Cl         5.32790        2.50230        2.65280
Cl         5.97110        3.23050       -0.07200
