21
TSA8_9_OMe_CH2F_I
C          0.81720       -0.71770       -1.28340
C          1.60510       -1.35000       -0.15510
O          1.67920        0.08310       -2.07530
H         -0.03170       -0.11860       -0.87060
C          1.22490       -1.10320        1.27410
C          0.18840       -1.79890       -2.18310
C         -0.78570       -2.65270       -1.41050
C         -0.62310       -3.97140       -1.27680
O          2.56590       -2.06220       -0.41060
I         -0.88150       -0.89120       -3.80410
H          0.99790       -2.42140       -2.62660
H         -1.64630       -2.17880       -0.94690
H          0.22480       -4.48180       -1.72360
H         -1.34520       -4.55170       -0.71200
C          1.82340        1.36800       -1.51000
H          2.46140        1.97580       -2.18440
H          2.33760        1.31840       -0.52580
H          0.84660        1.89490       -1.43530
F         -0.06060       -1.55660        1.50250
H          1.27390       -0.01550        1.49000
H          1.91970       -1.63380        1.95950
