21
TSA8_9_OMe_CH2F_I
C          0.93880       -0.84970       -1.27150
C          1.52740       -1.79650       -0.18360
O          1.87860        0.17860       -1.54000
H         -0.06580       -0.47380       -0.95110
C          1.48200       -1.21440        1.22860
C          0.71530       -1.69590       -2.52810
C         -0.26970       -2.84010       -2.22490
C         -0.24560       -3.22980       -0.73670
O          1.06400       -3.14880       -0.21640
I          0.02700       -0.55830       -4.21160
H          1.69370       -2.14510       -2.80790
H         -1.32190       -2.57500       -2.46580
H         -0.63950       -4.26050       -0.62150
H         -0.92290       -2.57240       -0.14550
C          1.33340        1.44890       -1.25840
H          0.49620        1.68400       -1.95030
H          2.12240        2.21150       -1.42090
H          1.01560        1.52880       -0.19550
F          0.17390       -1.07720        1.65660
H          1.98040       -0.22380        1.25160
H          2.02080       -1.89160        1.92340
