27
TSA8_9_CHF2_OMe_Et
C          3.15090        1.69400        0.88500
C          1.73050        2.26870        1.06850
C          3.11290        0.20960        0.45400
H          3.61760        2.24970        0.04720
O          0.99920        2.22210       -0.13080
C          3.97260        1.91340        2.20450
C          3.04900        2.38620        3.34920
C          1.73690        1.58200        3.34050
O          1.01670        1.61500        2.10630
C          5.10890        2.95100        2.04540
H          4.43250        0.95000        2.52120
H          2.77580        3.45560        3.20300
H          1.08440        1.98130        4.14480
H          1.97010        0.52570        3.58820
F          4.39710       -0.24590        0.21360
F          2.52980       -0.59140        1.41910
H          2.53040        0.10450       -0.48580
C          0.96840        3.53120       -0.64210
H          0.39140        3.52390       -1.58950
H          1.99240        3.89260       -0.89090
H          0.45160        4.22930        0.05490
C          6.20130        2.52510        1.06150
H          5.59760        3.09790        3.03390
H          4.68400        3.92640        1.72000
H          6.66320        1.57090        1.39020
H          6.98790        3.30870        1.03130
H          5.81050        2.40290        0.03210
