23
TSA8_9_H_Et_Me
C          2.96310        2.61010       -1.13400
C          1.58790        1.99480       -1.24080
H          3.70820        1.81510       -0.91180
H          3.22430        3.05370       -2.12010
C          0.82910        2.09510       -2.54330
C          3.03340        3.72130       -0.06520
C          2.82300        3.15690        1.32160
C          1.81830        3.55630        2.10710
O          1.10590        1.41100       -0.28010
C          4.39830        4.41500       -0.11500
H          2.25920        4.48670       -0.30160
H          3.51240        2.40390        1.69370
H          1.10800        4.30660        1.77480
H          1.70350        3.12760        3.09760
C         -0.54990        1.43790       -2.49300
H          1.42790        1.60820       -3.34270
H          0.69970        3.16850       -2.79970
H         -0.45500        0.35610       -2.25920
H         -1.04780        1.54550       -3.47980
H         -1.18150        1.92870       -1.72200
H          5.21690        3.69320        0.09710
H          4.43750        5.23360        0.63580
H          4.56580        4.86050       -1.11910
