17
TSA8_9_H_F_CF3
C          1.91550        0.05880       -0.18590
C          1.36330        0.87870       -1.09190
H          2.40550        0.42800        0.70760
H          1.87220       -1.01560       -0.33380
F          0.75350        0.32760       -2.17350
C          4.25750        4.01500       -0.57090
C          3.53210        2.92590       -0.27400
C          2.04360        3.00130       -0.04370
O          1.36520        2.23720       -0.97670
C          5.73660        3.92390       -0.80480
H          3.77590        4.98600       -0.64930
H          4.02710        1.96230       -0.19960
H          1.69520        4.05160       -0.14540
H          1.79050        2.67030        0.98650
F          5.99250        3.08060       -1.87070
F          6.24000        5.17910       -1.09220
F          6.36280        3.43530        0.32760
