17
TSA8_9_I_Br_Me
C          1.91050       -0.44050       -2.25540
C          0.68020       -1.30090       -2.37300
I          1.59020        0.94700       -0.64200
H          2.77570       -1.08100       -1.97710
Br         0.79550       -3.19010       -2.10060
C          2.22720        0.29370       -3.58150
C          3.45940        1.15510       -3.41840
C          3.42540        2.48040       -3.59000
O         -0.40110       -0.80220       -2.64450
C          2.47670       -0.69660       -4.72850
H          1.35350        0.92800       -3.85490
H          4.40250        0.68350       -3.15510
H          2.50400        2.99020       -3.85360
H          4.33020        3.06640       -3.46500
H          1.58050       -1.32650       -4.90940
H          3.33740       -1.36010       -4.49450
H          2.69650       -0.14380       -5.66710
