17
TSA8_9_Cl_H_Me
C          1.73450        0.20020        0.04270
C          2.23070        0.27390        1.27890
Cl         0.82050       -1.20240       -0.49420
H          1.92940        0.99990       -0.66580
H          2.83270        1.13590        1.55540
C          2.12030        0.85860        4.78170
C          3.08620        0.20850        4.12200
C          2.81550       -0.99320        3.25210
O          1.99900       -0.71730        2.17400
C          2.43930        2.03720        5.65780
H          1.08710        0.52530        4.70440
H          4.11970        0.53420        4.21250
H          2.35280       -1.80090        3.86000
H          3.78640       -1.36930        2.86400
H          1.88800        2.92570        5.29450
H          3.52790        2.27210        5.65770
H          2.13250        1.81640        6.70200
