23
TSA8_9_NO2_CCl3_OMe
C          1.73570       -1.37150       -0.86610
C          2.63310       -1.31470        0.36820
N          2.27960       -0.49140       -1.89400
H          0.72200       -1.00080       -0.63170
C          2.18400       -0.80260        1.72550
C          1.57990       -2.83760       -1.37340
C          0.96750       -3.72810       -0.30660
C         -0.25900       -3.51660        0.18230
O          3.78940       -1.70010        0.25820
O          2.85510       -3.33670       -1.75090
H          0.88860       -2.79930       -2.24760
H          1.53330       -4.57570        0.06850
H         -0.66130       -4.18010        0.94050
H         -0.86950       -2.68990       -0.16640
O          2.39380        0.67510       -1.66950
O          2.60750       -0.94690       -3.08200
Cl         2.34400       -2.11030        2.92340
Cl         3.24000        0.54640        2.21400
Cl         0.49780       -0.21270        1.79070
C          2.73220       -4.44090       -2.62470
H          2.02940       -4.24850       -3.46570
H          2.44910       -5.35710       -2.06410
H          3.72210       -4.62560       -3.09020
