18
TSA8_9_Cl_CN_CBr3
C          1.68560       -0.05960        0.04100
C          1.38980       -1.07260        0.89580
Cl         1.74930       -0.04310       -1.70330
H          1.57800        0.95350        0.45110
C          1.34890       -0.73960        2.27630
C          3.29780       -3.32730       -1.80020
C          2.58790       -3.54720       -0.68310
C          1.17700       -3.04790       -0.57790
O          1.02710       -2.34620        0.58750
C          4.66870       -3.88660       -2.09980
H          2.84290       -2.74250       -2.59210
H          2.98460       -4.14090        0.13880
H          0.53310       -3.95100       -0.54540
H          0.83320       -2.46980       -1.45420
N          1.30630       -0.50070        3.40280
Br         4.50180       -4.97540       -3.69430
Br         5.89370       -2.44040       -2.48570
Br         5.44950       -5.00000       -0.70780
