17
TSA8_9_CHF2_Br_I
C          1.83050       -0.02220       -0.01190
C          1.13550       -0.97490       -0.65710
C          2.15270        1.34620       -0.56140
H          2.19330       -0.23900        0.98840
Br         0.84060       -2.64720        0.25230
C         -0.08510       -1.69060       -5.09440
C         -0.44470       -1.09160       -3.95450
C         -0.10490       -1.67120       -2.61260
O          0.65630       -0.76280       -1.90960
I         -0.58620       -0.83500       -6.95760
H          0.46890       -2.62440       -5.08730
H         -0.99920       -0.15890       -3.99310
H          0.45770       -2.62470       -2.72420
H         -1.05000       -1.87190       -2.06380
F          3.52470        1.50920       -0.59250
F          1.64970        1.55440       -1.83310
H          1.71760        2.11040        0.11540
