18
TSA8_9_F_OMe_H
C          1.87440       -0.07700       -0.08820
C          1.88460       -0.48930        1.19430
F          1.82870       -0.92910       -1.14410
H          1.89330        0.98700       -0.30250
O          1.91560        0.46560        2.15590
C          4.39420       -3.93830        0.87640
C          3.58230       -2.96600        0.45000
C          2.12280       -2.93140        0.82190
O          1.85690       -1.80220        1.57310
H          5.44330       -3.92910        0.60000
H          4.02700       -4.74380        1.50510
H          3.99110       -2.17490       -0.17050
H          1.86900       -3.81680        1.44260
H          1.47510       -2.97990       -0.07620
C          2.03750        0.17920        3.49890
H          2.03840        1.12590        4.07690
H          2.99590       -0.35280        3.68640
H          1.18830       -0.45100        3.83870
