18
TSA8_9_F_OMe_H
C          3.05010       -0.89240        0.42260
C          1.67700       -0.90840        1.15410
F          2.83330       -0.95060       -0.94340
H          3.60420        0.04570        0.63890
O          1.49190        0.15460        2.07210
C          3.85310       -2.12100        0.85410
C          3.05700       -3.40790        0.58430
C          1.54140       -3.17430        0.73100
O          1.28680       -2.17230        1.69170
H          4.84940       -2.16940        0.36550
H          4.01890       -2.05120        1.94950
H          3.23780       -3.81870       -0.43270
H          1.04630       -4.12420        1.01920
H          1.09330       -2.87980       -0.24760
C          2.21490       -0.07160        3.26210
H          2.04840        0.79410        3.93530
H          3.30880       -0.11920        3.07850
H          1.84490       -0.97040        3.80190
