21
TSA8_9_CHF2_OMe_H
C          2.63580        0.56940        1.57260
C          1.33390        1.35780        1.65220
C          2.43870       -0.72470        0.75560
H          3.39800        1.15160        1.01490
O          1.20870        2.63060        1.18870
C          3.25560        0.38200        2.98440
C          2.40910       -0.32150        4.01700
C          2.17200       -1.63480        4.00130
O          0.35890        0.83850        2.17290
H          3.43940        1.40930        3.37160
H          4.24550       -0.11790        2.91710
H          2.00670        0.26720        4.83630
H          1.56990       -2.08150        4.78590
H          2.58500       -2.27650        3.23200
F          3.62140       -1.44070        0.69030
F          1.43980       -1.52750        1.27380
H          2.13940       -0.45480       -0.27980
C          2.22790        3.41530        0.69460
H          1.81720        4.40880        0.42180
H          2.66980        2.95600       -0.21400
H          3.00690        3.55950        1.47450
