21
TSA8_9_CHF2_OMe_H
C          2.88820        0.12040        1.06080
C          1.51680        0.79120        1.29330
C          2.68340       -1.30110        0.49340
H          3.43220        0.65130        0.24800
O          1.37230        2.13300        0.86620
C          3.75480        0.13930        2.34400
C          2.94610        0.40340        3.62060
C          1.51900       -0.13440        3.50630
O          0.75800        0.45340        2.45310
H          4.51440        0.94810        2.28380
H          4.32450       -0.80990        2.43390
H          2.86970        1.49270        3.80700
H          1.00830        0.09950        4.46350
H          1.51970       -1.23650        3.42100
F          3.90660       -1.86570        0.17660
F          2.02000       -2.13980        1.36530
H          2.08740       -1.23640       -0.44230
C          1.96190        3.02440        1.77820
H          1.81740        4.05470        1.39300
H          3.05920        2.86890        1.84610
H          1.45610        2.98460        2.76660
