23
TSA8_9_CF3_CBr3_CCl3
C          1.75260       -0.12050        0.05580
C          1.47050       -1.40880        0.40970
C          1.89410        0.47350       -1.32800
H          1.86770        0.62510        0.82950
C          1.23940       -1.80130        1.86550
C          2.72770       -5.14980       -2.02430
C          2.85910       -4.11080       -1.18520
C          2.27580       -2.75960       -1.47570
O          1.37060       -2.43800       -0.48000
C          3.32620       -6.49630       -1.70740
H          2.17900       -5.02160       -2.95360
H          3.40840       -4.23810       -0.25740
H          1.75460       -2.76020       -2.45710
H          3.12120       -2.03890       -1.50500
F          3.20330        0.87050       -1.52220
F          1.51100       -0.37080       -2.34580
F          1.08020        1.58850       -1.40040
Br         1.34510       -0.37960        3.19780
Br        -0.52780       -2.58250        2.01990
Br         2.53490       -3.14610        2.38100
Cl         2.97150       -7.64530       -3.02190
Cl         5.09700       -6.36540       -1.53720
Cl         2.63730       -7.14150       -0.19380
