23
TSA8_9_CF3_CBr3_CCl3
C          2.50720       -2.45590       -0.03530
C          0.98050       -2.08760       -0.17750
C          3.37990       -1.22570       -0.39040
H          2.71860       -2.67340        1.03280
C          0.18930       -2.12930        1.14800
C          2.77860       -3.76180       -0.85520
C          2.27520       -3.61690       -2.30910
C          0.98860       -2.78370       -2.37310
O          0.29960       -2.87750       -1.14930
C          4.18900       -4.41440       -0.78610
H          2.09910       -4.50490       -0.37960
H          3.00960       -3.18560       -3.02100
H          0.35340       -3.15280       -3.20440
H          1.20120       -1.71680       -2.61400
F          4.69450       -1.44540       -0.03290
F          3.32120       -0.92130       -1.73640
F          2.94830       -0.12140        0.32060
Br         0.93400       -0.94000        2.48950
Br        -1.63350       -1.54950        0.82950
Br         0.13000       -3.92910        1.87800
Cl         4.11400       -6.05340       -1.49350
Cl         5.44610       -3.52920       -1.69760
Cl         4.72370       -4.60330        0.90630
