18
TSA8_9_CN_F_CBr3
C          2.58560        1.08580       -0.97300
C          1.83000       -0.24800       -1.23450
C          1.88310        1.71160        0.15690
H          3.59010        0.78790       -0.63340
F          1.75410       -1.17160       -0.22740
C          2.69030        2.16070       -2.15660
C          2.13160        1.63040       -3.43200
C          0.82950        1.76170       -3.68690
O          1.30750       -0.55060       -2.28520
C          4.02130        2.95090       -2.43830
H          2.01740        2.98780       -1.83970
H          2.75390        1.04100       -4.09770
H          0.40630        1.29580       -4.56330
H          0.18590        2.27940       -2.98000
N          1.31720        2.26700        1.02110
Br         3.56740        4.54970       -3.46940
Br         4.93770        3.58940       -0.85490
Br         5.32910        1.99090       -3.51900
