18
TSA8_9_CN_F_CBr3
C          1.65030       -0.04050       -0.04910
C          1.47020       -0.64700       -1.24950
C          1.82140        1.35980        0.22770
H          1.58800       -0.66840        0.82560
F          1.47370       -1.99790       -1.24090
C          2.82290        3.07130       -3.18310
C          2.60050        1.81970       -2.77240
C          1.20510        1.27600       -2.78270
O          1.23970       -0.05630       -2.45740
C          4.19250        3.69770       -3.20450
H          1.97800        3.65790       -3.52460
H          3.43320        1.19440       -2.44380
H          0.79020        1.37820       -3.81300
H          0.53210        1.83770       -2.09840
N          1.95870        2.48950        0.43060
Br         4.07910        5.48110       -3.96060
Br         4.90290        3.85070       -1.40790
Br         5.42150        2.66520       -4.29350
