18
TSA8_9_CHF2_Cl_CN
C          2.09230       -1.10280        1.47650
C          1.20840        0.03520        1.97000
C          2.05890       -1.20960       -0.09200
H          3.11320       -0.78170        1.77050
Cl         1.54630        1.69240        1.50730
C          1.82040       -2.44060        2.26730
C          0.90520       -3.39100        1.55190
C         -0.37600       -3.09930        1.32660
O          0.30330       -0.16180        2.76950
C          3.08740       -3.10800        2.61960
H          1.40010       -2.22220        3.26790
H          1.29710       -4.34410        1.18540
H         -0.79810       -2.16890        1.68510
H         -1.00570       -3.79220        0.78210
F          3.09430       -0.47850       -0.64420
F          2.17560       -2.50450       -0.56760
H          1.09980       -0.80740       -0.49150
N          4.06250       -3.62430        2.96310
