18
TSA8_9_CHF2_Cl_CN
C          2.15080       -1.08350        1.33630
C          0.79940       -0.31220        1.50570
C          2.35030       -1.54100       -0.13390
H          2.97670       -0.35800        1.51290
Cl         1.09390        1.19300        2.42540
C          2.18180       -2.18940        2.41850
C          0.98320       -3.14040        2.26280
C         -0.26190       -2.37030        1.78100
O         -0.21080       -1.03130        2.21410
C          3.44600       -2.91910        2.57110
H          2.03350       -1.66490        3.38620
H          1.15800       -3.99450        1.57170
H         -1.17100       -2.86550        2.17660
H         -0.37660       -2.39210        0.67600
F          3.68570       -1.80180       -0.37920
F          1.61820       -2.65990       -0.47720
H          2.04630       -0.71090       -0.81010
N          4.42640       -3.51450        2.72470
