20
TSA8_9_CH2F_Cl_Me
C          1.46030       -1.55750       -1.80780
C          1.17860       -1.57890       -0.32100
C          1.48680       -0.10160       -2.31240
H          2.47880       -1.97870       -1.96060
Cl         2.37650       -2.22050        0.79240
C          0.46230       -2.48020       -2.57340
C         -0.97400       -2.01280       -2.45550
C         -1.91510       -2.76120       -1.87110
O          0.12850       -1.14300        0.12480
C          0.82300       -2.61650       -4.05910
H          0.56200       -3.49780       -2.13020
H         -1.25520       -1.04530       -2.86000
H         -1.68100       -3.73610       -1.45450
H         -2.93480       -2.39620       -1.80600
F          2.43380        0.62390       -1.61020
H          0.49930        0.38710       -2.17910
H          1.76180       -0.06110       -3.38510
H          0.71970       -1.65110       -4.59630
H          0.14460       -3.35010       -4.54550
H          1.86520       -2.98390       -4.16960
