20
TSA8_9_CH2F_Cl_Me
C          1.50090       -1.62750       -1.98220
C          1.06440       -1.66280       -0.50390
C          1.53310       -0.16330       -2.46370
H          2.54010       -2.01490       -2.06650
Cl         1.45480       -3.19860        0.33740
C          0.54630       -2.54420       -2.79330
C         -0.90990       -2.14380       -2.52940
C         -1.16590       -2.15270       -1.01710
O         -0.29060       -1.27050       -0.32970
C          0.84570       -2.56940       -4.29600
H          0.67900       -3.58490       -2.42120
H         -1.12650       -1.13540       -2.94090
H         -1.09460       -3.18490       -0.61040
H         -2.21060       -1.82190       -0.84110
F          2.41690        0.56520       -1.68670
H          0.53490        0.31520       -2.39620
H          1.88510       -0.10560       -3.51340
H          0.68220       -1.57510       -4.76050
H          0.17290       -3.29560       -4.80010
H          1.89600       -2.88580       -4.46950
