20
TSA8_9_CF3_CH2F_H
C          1.76760        0.07660       -0.07080
C          1.42580        1.10840       -0.87490
C          1.91980        0.14410        1.43050
H          1.94910       -0.89730       -0.51740
C          1.27520        0.88990       -2.35910
C          3.91630        3.69340       -1.96790
C          2.63700        3.79120       -1.59560
C          2.16350        3.32150       -0.24750
O          1.19010        2.34580       -0.36750
H          4.22300        4.04220       -2.94850
H          4.66400        3.26710       -1.30600
H          1.91530        4.22140       -2.28360
H          1.72540        4.19270        0.28200
H          3.00480        2.93540        0.36950
F          3.21880       -0.18950        1.76380
F          1.63330        1.39120        1.95220
F          1.06220       -0.77440        2.00560
F         -0.01320        1.21220       -2.74190
H          1.47570       -0.16430       -2.64750
H          1.98740        1.53120       -2.91470
