27
TSA8_9_OMe_CH2F_Et
C          2.65290        1.39630        0.18910
C          1.40980        1.22690       -0.66130
O          2.45870        0.77030        1.44740
H          3.51990        0.95910       -0.36430
C          1.50670        0.54970       -1.99950
C          2.98250        2.90300        0.38600
C          1.95780        3.58490        1.27130
C          1.18630        4.58330        0.83000
O          0.33000        1.63540       -0.26070
C          4.41710        3.14810        0.91880
H          2.97240        3.37160       -0.62540
H          1.83700        3.25460        2.29930
H          1.26620        4.94850       -0.18840
H          0.46380        5.04310        1.49660
C          2.74870       -0.60990        1.37070
H          3.84270       -0.77710        1.28690
H          2.19580       -1.10690        0.54380
H          2.40260       -1.08840        2.31070
F          0.26870        0.49630       -2.61520
H          1.88900       -0.48370       -1.86940
H          2.20760        1.11510       -2.64880
C          4.72950        2.57020        2.30200
H          4.58970        4.24710        0.95770
H          5.14670        2.72340        0.19450
H          4.05050        2.98660        3.07190
H          5.77180        2.83690        2.57670
H          4.66160        1.46480        2.29690
