27
TSA8_9_OMe_CH2F_Et
C          1.48400        0.06070       -0.13840
C          1.35790        1.01800       -1.08810
O          1.47050        0.34640        1.18480
H          1.58140       -0.97750       -0.44840
C          1.34720        0.61770       -2.53760
C          3.65330        4.15970        0.73000
C          2.92750        3.03090        0.67470
C          1.45660        3.04990        0.34360
O          1.22340        2.35380       -0.82870
C          5.12800        4.14710        1.03050
H          3.17990        5.11850        0.53680
H          3.40900        2.07530        0.85710
H          1.11670        4.09610        0.18760
H          0.84790        2.64490        1.17760
C          1.54270       -0.61040        2.17580
H          2.43470       -0.41700        2.80610
H          1.61230       -1.64060        1.76240
H          0.63420       -0.54500        2.80980
F          0.15530        1.01290       -3.11510
H          1.46260       -0.47850       -2.67680
H          2.18730        1.12300       -3.05850
C          5.42700        3.59880        2.42380
H          5.51240        5.18840        0.97300
H          5.65580        3.53650        0.26630
H          4.92000        4.21630        3.19540
H          6.52220        3.63010        2.60490
H          5.08730        2.54610        2.51620
