19
TSA8_9_NH2_CH2F_F
C          1.62570        0.08290       -0.02190
C          1.44080        1.39490       -0.31950
N          1.68570       -0.45730        1.28750
H          1.69550       -0.62900       -0.84080
C          1.29200        1.80110       -1.76050
C          4.40110        3.85550        1.18080
C          3.66800        2.74120        1.12080
C          2.25230        2.67950        1.63170
O          1.38080        2.41410        0.58630
F          5.67160        3.85500        0.69920
H          3.99810        4.76960        1.60580
H          4.10170        1.84640        0.68540
H          1.95230        3.64930        2.08310
H          2.19630        1.94040        2.44210
H          1.43830        0.07630        2.12370
H          1.83970       -1.47010        1.40000
F          0.06420        2.41040       -1.94110
H          1.36570        0.94000       -2.45810
H          2.09500        2.52390       -2.01660
