20
TSA8_9_NH2_CF3_OH
C          1.43190       -0.23430       -0.09050
C          1.87360       -1.40550       -0.62180
N          1.63530        0.20480        1.24420
H          0.83770        0.41850       -0.72520
C          1.45260       -1.73670       -2.03220
C          3.98880       -3.99420        2.62750
C          3.24670       -2.96520        2.18800
C          3.63510       -2.17760        0.96760
O          2.65790       -2.33300        0.00350
O          3.62240       -4.71120        3.71300
H          4.90090       -4.27300        2.10840
H          2.33460       -2.69800        2.71340
H          4.58670       -2.56530        0.54610
H          3.83580       -1.11770        1.20940
H          2.02470       -0.39040        1.98220
H          1.26230        1.12180        1.52400
F          1.90940       -0.76320       -2.90230
F          1.97500       -2.95860       -2.41770
F          0.07260       -1.80350       -2.10430
H          2.81250       -4.52550        4.20940
