18
TSA8_9_I_CN_Me
C          2.97520        0.38520       -1.80930
C          1.93420       -0.71070       -1.94200
I          2.97630        1.14450        0.21820
H          3.95020       -0.11920       -1.97380
C          2.03420       -1.89850       -1.12960
C          2.80850        1.50390       -2.88180
C          1.75030        2.51410       -2.48520
C          0.48920        2.46180       -2.91540
O          1.07910       -0.67460       -2.81380
C          4.12820        2.23450       -3.15810
H          2.54940        1.02080       -3.85030
H          2.02500        3.31280       -1.79920
H          0.15020        1.67380       -3.57630
H         -0.22050        3.21190       -2.57870
N          2.11990       -2.85510       -0.48410
H          4.90510        1.50420       -3.47400
H          4.49150        2.77720       -2.26080
H          3.99100        2.95830       -3.99120
