22
TSA8_9_NH2_CBr3_Me
C          2.97700        1.06730       -1.01020
C          1.58050        0.62990       -1.42650
N          3.21980        0.74430        0.40000
H          3.71180        0.49630       -1.61940
C          1.38430       -0.41540       -2.50420
C          3.22360        2.57380       -1.30510
C          2.32720        3.48240       -0.48860
C          1.44430        4.30780       -1.05880
O          0.60710        1.12620       -0.87740
C          4.68710        2.94830       -1.04140
H          3.03640        2.73680       -2.39100
H          2.40400        3.47390        0.59470
H          1.33220        4.35460       -2.13740
H          0.82230        4.94590       -0.43940
H          2.49610        1.18600        1.01150
H          3.15960       -0.29160        0.53120
Br         2.21600       -2.08450       -1.97250
Br        -0.49720       -0.77310       -2.84230
Br         2.17920        0.18180       -4.16920
H          5.36120        2.32170       -1.66390
H          4.94940        2.80240        0.02830
H          4.86190        4.01280       -1.30860
