16
TSA8_9_OH_F_OH
C          1.17430       -1.91390       -0.70020
C          1.06330       -1.36090        0.73060
O          0.53760       -1.03610       -1.59240
H          2.24410       -2.03080       -0.99130
F          1.81790       -2.09460        1.63500
C          0.49550       -3.29030       -0.75180
C         -0.93800       -3.16450       -0.22310
C         -0.89810       -2.53910        1.17730
O         -0.28910       -1.25750        1.15060
O          0.49630       -3.77660       -2.06730
H          1.06950       -3.98590       -0.09510
H         -1.54130       -2.51770       -0.89740
H         -0.38460       -3.21090        1.90050
H         -1.94190       -2.42620        1.53690
H          1.16360       -0.28020       -1.74400
H          0.23730       -4.73410       -2.01570
