19
TSA8_9_NH2_CBr3_Cl
C          1.72730       -0.16140        0.04470
C          1.46150       -1.17690       -0.82120
N          1.88810        1.19470       -0.34590
H          1.79050       -0.35490        1.10680
C          1.20520       -2.59820       -0.34330
C          4.10400       -1.55260       -4.13770
C          2.80700       -1.24700       -4.02250
C          2.30070       -0.31520       -2.96010
O          1.39360       -0.99860       -2.17230
Cl         4.64700       -2.65620       -5.39060
H          4.84050       -1.13080       -3.46060
H          2.09050       -1.68650       -4.71050
H          1.79080        0.53820       -3.45430
H          3.15180        0.06850       -2.35470
H          1.73030        1.52360       -1.30570
H          2.08540        1.90230        0.37560
Br         1.28370       -2.90600        1.58150
Br        -0.55630       -3.14670       -0.93570
Br         2.51160       -3.77400       -1.16010
