23
TSA8_9_NO2_OMe_CCl3
C          2.69670        0.40880        1.49220
C          2.18940        1.81930        1.30580
N          1.65550       -0.51250        1.06210
H          3.58750        0.25870        0.83920
O          2.83150        2.66370        0.45940
C          3.10820        0.12380        2.97340
C          3.34680       -1.36770        3.14560
C          2.60190       -2.10580        3.97710
O          1.20070        2.19310        1.92410
C          4.37710        0.90240        3.45470
H          2.25830        0.41930        3.62790
H          4.13670       -1.85400        2.58070
H          1.80070       -1.66030        4.55980
H          2.79060       -3.16890        4.08050
O          1.85480       -1.25590        0.14860
O          0.49520       -0.54900        1.68180
C          2.43970        3.97050        0.25420
H          3.12420        4.44970       -0.47480
H          2.48210        4.53610        1.21020
H          1.40460        4.00170       -0.14960
Cl         4.16590        2.67430        3.43000
Cl         4.74680        0.48320        5.15330
Cl         5.81990        0.50700        2.47270
