23
TSA8_9_NO2_OMe_CCl3
C          3.07800        0.57890        1.34670
C          1.58040        1.03540        1.36230
N          3.19590       -0.73650        0.72890
H          3.65100        1.29490        0.71890
O          1.30520        2.17690        0.57210
C          3.59020        0.62740        2.82060
C          2.68400       -0.23300        3.72820
C          1.20990       -0.14530        3.29720
O          0.95900        1.08010        2.64420
C          5.10280        0.39600        3.10000
H          3.41060        1.68230        3.12840
H          2.96820       -1.30660        3.77070
H          0.56040       -0.24860        4.19080
H          0.94060       -0.99720        2.62980
O          4.27080       -1.16050        0.43740
O          2.12660       -1.38550        0.31700
C          1.73280        3.35100        1.22860
H          1.59410        4.20480        0.53440
H          2.81580        3.32600        1.47550
H          1.11540        3.55700        2.12920
Cl         6.10290        1.45600        2.06960
Cl         5.46020        0.83090        4.79580
Cl         5.64570       -1.29240        2.88950
