20
TSA8_9_NH2_CBr3_OH
C          1.85690        0.16560        0.09870
C          1.47850        0.38150        1.39080
N          1.97060       -1.10100       -0.53030
H          2.05920        1.00860       -0.54650
C          1.28040        1.79630        1.92540
C          3.91950       -1.68420        4.12470
C          3.38630       -1.42460        2.92140
C          1.95420       -1.75620        2.59710
O          1.24000       -0.60100        2.31540
O          5.20740       -1.38070        4.39980
H          3.31870       -2.14570        4.90250
H          3.99700       -0.96240        2.15100
H          1.46300       -2.24610        3.46480
H          1.92540       -2.49920        1.79250
H          1.61840       -1.96810       -0.12410
H          2.27800       -1.13820       -1.51280
Br         1.56510        3.27220        0.67990
Br        -0.53570        1.96370        2.58190
Br         2.48610        2.07920        3.41640
H          5.79420       -0.96880        3.74910
