22
TSA8_9_I_NO2_Et
C          1.97130       -0.22850        0.12970
C          1.42080       -1.35260        0.66420
I          2.70480        0.18060       -1.82230
H          2.06030        0.65570        0.75100
N          0.97330       -1.32210        2.02180
C          3.78700       -3.98870       -0.09100
C          3.28450       -3.17510       -1.03780
C          1.79710       -2.99670       -1.18430
O          1.24520       -2.53310       -0.00630
C          5.25910       -4.23760        0.15620
H          3.09490       -4.51590        0.56060
H          3.93240       -2.63230       -1.71520
H          1.35170       -3.98870       -1.40940
H          1.53280       -2.33600       -2.03020
O          0.48970       -2.30000        2.50670
O          1.09540       -0.23760        2.75920
C          6.21760       -3.47060       -0.75550
H          5.45140       -5.32500        0.03630
H          5.48140       -3.95730        1.20790
H          6.05330       -3.75240       -1.81710
H          7.26450       -3.72220       -0.48410
H          6.07710       -2.37570       -0.63030
