22
TSA8_9_I_NO2_Et
C          3.13340       -1.59360        0.34940
C          1.57550       -1.50400        0.47830
I          3.72770       -0.30490       -1.27850
H          3.61720       -1.15670        1.24960
N          1.19460       -1.36760        1.87190
C          3.51250       -3.08350        0.20900
C          2.84400       -3.68210       -1.04390
C          1.48010       -3.02070       -1.30960
O          0.87960       -2.61690       -0.09940
C          5.00850       -3.45770        0.35680
H          3.02590       -3.57980        1.07990
H          3.44130       -3.58750       -1.97390
H          0.82480       -3.73950       -1.84330
H          1.57510       -2.14430       -1.98750
O          0.47410       -2.16750        2.38990
O          1.59100       -0.31740        2.55780
C          5.96590       -2.93220       -0.71280
H          5.08070       -4.56790        0.35430
H          5.36850       -3.10090        1.34640
H          5.67340       -3.27610       -1.72490
H          6.98580       -3.31830       -0.50300
H          6.02860       -1.82960       -0.68570
