21
TSA8_9_CCl3_H_OMe
C          0.15340        1.46080        1.36170
C          0.25860        1.67040       -0.16360
C          1.38040        0.65120        1.90700
H         -0.72960        0.81220        1.55840
H         -0.71410        1.97100       -0.61720
C         -0.15380        2.85080        1.99620
C          0.85790        3.90650        1.52410
C          0.92310        3.88650       -0.00960
O          1.27840        2.60140       -0.49120
O         -0.21090        2.76210        3.40910
H         -1.15210        3.14180        1.58770
H          1.85890        3.73450        1.96250
H          1.69030        4.61760       -0.33910
H         -0.04340        4.22140       -0.45090
Cl         1.20680        0.28410        3.64540
Cl         1.44560       -0.93030        1.07730
Cl         2.97830        1.41250        1.66680
C         -0.81160        3.91480        3.96120
H         -1.79420        4.14700        3.49300
H         -0.12120        4.78350        3.90820
H         -1.01580        3.71850        5.03350
