22
TSA8_9_CCl3_NO2_CBr3
C          1.79670       -2.00990       -0.21790
C          2.70080       -1.97450        1.02660
C          2.40820       -1.15700       -1.37470
H          0.90710       -1.42350        0.08120
N          2.46270       -1.11160        2.06010
C          1.21120       -3.46780       -0.54270
C         -0.14900       -3.35950       -1.22980
C         -1.20960       -2.78140       -0.65290
O          3.67480       -2.70440        1.08540
C          2.07130       -4.54430       -1.32480
H          0.99500       -3.92910        0.44780
H         -0.30010       -3.78980       -2.21510
H         -1.15250       -2.35370        0.34230
H         -2.15800       -2.74630       -1.18010
Cl         1.30680       -1.02420       -2.77190
Cl         2.66970        0.52410       -0.81730
Cl         4.00480       -1.74090       -1.91190
O          3.19420       -1.09850        3.00490
O          1.46840       -0.25150        2.01680
Br         1.12950       -6.25030       -1.26430
Br         2.31420       -4.18750       -3.22550
Br         3.81370       -4.97590       -0.59680
