23
TSA8_9_Me_NH2_OMe
C          2.69280        1.50270       -0.62590
C          1.42380        1.02010       -1.30850
C          2.78990        0.79150        0.74180
H          3.55570        1.18330       -1.25070
N          1.49030        0.32760       -2.47180
C          2.70960        3.07100       -0.57990
C          1.74190        3.66710        0.42770
C          0.69290        4.40870        0.05790
O          0.33260        1.25280       -0.80860
O          4.00130        3.66570       -0.48610
H          2.37820        3.37790       -1.59800
H          1.89550        3.49280        1.48730
H          0.48790        4.61630       -0.98770
H          0.02670        4.81600        0.81120
H          1.93080        1.06140        1.39190
H          3.72070        1.00670        1.29050
H          2.76660       -0.30900        0.58810
H          0.62900        0.00020       -2.93360
H          2.39620        0.11690       -2.91360
C          4.75170        3.28240        0.64140
H          5.53700        4.04860        0.80310
H          5.27980        2.32700        0.44250
H          4.15650        3.26260        1.57730
