23
TSA8_9_Me_NH2_OMe
C          2.67040        1.50600       -0.55720
C          1.23590        1.28190       -1.15100
C          2.68720        1.03500        0.90630
H          3.39860        0.85650       -1.09310
N          1.31920        0.53460       -2.40200
C          3.06260        2.98890       -0.78860
C          2.01590        3.98090       -0.23320
C          0.61230        3.35740       -0.28870
O          0.50720        2.48810       -1.39390
O          4.42130        3.33410       -0.54520
H          2.95870        3.10330       -1.89090
H          2.17830        4.34820        0.79920
H         -0.14360        4.16590       -0.36480
H          0.36550        2.81130        0.64860
H          2.02820        1.64460        1.55420
H          3.71170        1.05110        1.32260
H          2.34610       -0.02100        0.95840
H          0.34850        0.38000       -2.75710
H          1.72330       -0.40820       -2.20000
C          4.78590        3.39470        0.81860
H          5.31530        4.35280        0.99800
H          5.48470        2.56280        1.04330
H          3.94580        3.35440        1.53930
