19
TSA8_9_OMe_Br_CN
C          1.60760        0.04710        0.05850
C          1.49150        0.57130        1.30930
O          1.65940       -1.29310       -0.17160
H          1.56980        0.72900       -0.77890
Br         1.28140        2.46210        1.49860
C          1.95840       -3.44480        3.30710
C          1.76290       -2.47330        2.42200
C          0.76160       -1.37020        2.59480
O          1.40410       -0.15460        2.46370
C          3.02110       -4.38310        3.04060
H          1.37330       -3.49330        4.21460
H          2.37780       -2.48890        1.53640
H          0.26110       -1.43030        3.59070
H         -0.05680       -1.42080        1.84870
C          0.83350       -2.00370       -1.03890
H          1.35900       -2.85980       -1.50420
H          0.37280       -1.38640       -1.84290
H          0.01070       -2.44790       -0.42810
N          3.88250       -5.12020        2.79820
