20
TSA8_9_NO2_CHF2_CN
C          1.20090       -1.09460       -1.41400
C          2.14200       -1.83510       -0.46950
N          1.84530        0.11090       -1.92090
H          0.33480       -0.76700       -0.79850
C          1.78840       -1.95240        0.99790
C          0.60450       -2.02420       -2.52960
C          0.13880       -3.32360       -1.91610
C         -0.92630       -3.36400       -1.11530
O          3.17120       -2.33940       -0.89470
C          1.51470       -2.38400       -3.64330
H         -0.25180       -1.51090       -3.00620
H          0.68930       -4.24300       -2.10380
H         -1.22480       -4.29990       -0.65720
H         -1.49830       -2.46350       -0.91730
O          2.24730        0.93010       -1.15060
O          1.94990        0.34680       -3.21140
F          0.55110       -2.54830        1.15220
F          2.72700       -2.70450        1.67990
H          1.74220       -0.93920        1.44800
N          2.15760       -2.61690       -4.57020
