20
TSA8_9_NO2_CHF2_CN
C          1.07040       -1.21920       -1.53540
C          1.76810       -2.18810       -0.50940
N          1.89690       -0.04580       -1.84030
H          0.16600       -0.85790       -0.99690
C          1.74680       -1.65820        0.94170
C          0.47930       -1.96260       -2.79950
C          0.03040       -3.40200       -2.48570
C         -0.05420       -3.61650       -0.98840
O          1.25440       -3.51690       -0.46510
C          1.28290       -2.00820       -4.03620
H         -0.42570       -1.38030       -3.07530
H          0.80330       -4.13710       -2.82220
H         -0.43100       -4.64080       -0.79310
H         -0.76730       -2.91440       -0.50220
O          2.27460        0.66150       -0.95700
O          2.20550        0.28450       -3.07580
F          0.45700       -1.70900        1.44640
F          2.55410       -2.45680        1.73070
H          2.11130       -0.62010        1.03140
N          1.87880       -2.06280       -5.02730
