21
TSA8_9_Me_CN_CHF2
C          1.69440       -0.08170       -0.02130
C          1.53300       -1.11450       -0.87570
C          1.82040        1.36300       -0.40950
H          1.75320       -0.29460        1.04360
C          1.42290       -2.45180       -0.34240
C          0.64860        0.25430       -5.30660
C          0.97120        0.46290       -4.02110
C          0.45160       -0.43180       -2.93300
O          1.49440       -0.98870       -2.22700
C          1.14000        1.16410       -6.38930
H          0.00640       -0.57850       -5.58210
H          1.60100        1.30720       -3.75680
H         -0.14220       -1.26390       -3.36900
H         -0.21360        0.14670       -2.27060
H          1.51750        1.55990       -1.45050
H          2.87190        1.68670       -0.26770
H          1.17290        1.97270        0.25620
N          1.30980       -3.52460        0.07290
F          0.71560        2.45790       -6.14530
F          2.52100        1.13190       -6.43980
H          0.73370        0.83010       -7.36690
