21
TSA8_9_Me_CN_CHF2
C          2.01370        0.10280       -2.32460
C          1.18870       -0.96420       -1.52750
C          1.96310        1.41500       -1.50460
H          3.07800       -0.19150       -2.46670
C          1.87040       -1.81680       -0.55430
C          1.37210        0.16570       -3.75480
C         -0.13280        0.37230       -3.61710
C         -0.73190       -0.74030       -2.73880
O          0.24920       -1.67040       -2.30290
C          1.93370        1.10240       -4.83960
H          1.54060       -0.84720       -4.18770
H         -0.33540        1.37580       -3.17780
H         -1.45600       -1.27990       -3.38060
H         -1.30030       -0.31470       -1.88170
H          2.19920        2.30720       -2.11510
H          2.69450        1.36830       -0.66610
H          0.95990        1.56690       -1.04310
N          2.36580       -2.51010        0.23120
F          1.69710        2.43680       -4.57230
F          3.28450        0.89020       -5.04420
H          1.40640        0.84770       -5.79050
