17
TSA8_9_Br_Br_CBr3
C          3.18320        0.72500       -1.89220
C          1.71980        0.50000       -1.60500
Br         4.18460        0.21270       -0.29950
H          3.45960        0.01290       -2.69490
Br         0.73050       -0.78790       -2.61630
C          3.44310        2.18000       -2.40050
C          3.15410        3.19470       -1.30950
C          2.17520        4.09850       -1.42120
O          1.15100        1.12230       -0.72160
C          4.85880        2.42610       -3.00970
H          2.73560        2.33460       -3.24760
H          3.75800        3.19260       -0.40720
H          1.54550        4.13960       -2.30430
H          1.99960        4.80820       -0.61960
Br         4.93330        4.20690       -3.78940
Br         6.33320        2.31900       -1.74490
Br         5.22860        1.19370       -4.46690
