23
TSA8_9_CHF2_CH2F_CBr3
C          2.14630        1.30000       -1.68330
C          0.89050        0.77740       -2.34830
C          1.94760        1.16210       -0.15260
H          2.99240        0.63140       -1.95540
C          0.94420       -0.46110       -3.19830
C          2.49670        2.76940       -2.12920
C          3.71690        3.24870       -1.36220
C          3.66480        4.29270       -0.52720
O         -0.17670        1.35050       -2.17710
C          2.77820        2.95260       -3.66060
H          1.63250        3.42320       -1.87370
H          4.66260        2.72980       -1.48890
H          2.74110        4.84030       -0.36760
H          4.55660        4.60570        0.00560
F          3.11480        1.42270        0.54100
F          0.95150        2.01180        0.29790
H          1.65870        0.11570        0.08830
F         -0.30890       -0.76670       -3.70040
H          1.30370       -1.31360       -2.58530
H          1.64360       -0.30610       -4.04560
Br         3.29400        4.79240       -4.04250
Br         4.21710        1.80370       -4.29290
Br         1.22930        2.65420       -4.79710
