23
TSA8_9_CHF2_CH2F_CBr3
C          1.76420        0.02610       -0.14880
C          1.43040        0.65220       -1.30150
C          1.89000        0.67430        1.21030
H          1.94830       -1.04480       -0.17010
C          1.27630       -0.14180       -2.57240
C          2.77390        4.18470       -3.46250
C          2.80450        3.03670       -2.76470
C          2.20990        2.93880       -1.38570
O          1.20150        1.99070       -1.34190
C          3.36960        4.30020       -4.84100
H          2.30860        5.06290       -3.02320
H          3.27680        2.15870       -3.19310
H          1.77420        3.91600       -1.08360
H          3.01300        2.69060       -0.65980
F          3.18590        0.53240        1.66830
F          1.54650        2.01310        1.22180
H          1.20470        0.15130        1.90920
F         -0.01180        0.00330       -3.05170
H          1.47360       -1.22430       -2.41350
H          1.98830        0.22420       -3.33770
Br         3.15100        6.10930       -5.50300
Br         5.26630        3.89430       -4.80450
Br         2.47820        3.09180       -6.06840
