19
TSA8_9_OMe_I_CN
C          2.00470        0.08420        1.58570
C          2.40640        1.43010        1.05220
O          2.41740       -1.03770        0.80750
H          0.94160        0.28660        1.38090
I          1.80270        1.91830       -0.91680
C          2.18150       -0.13930        3.12880
C          0.93640       -0.84220        3.56430
C         -0.21180       -0.15520        3.50740
O          2.63420        2.35540        1.81710
C          3.37630       -0.88540        3.55790
H          2.22290        0.82370        3.68370
H          0.94730       -1.89510        3.82380
H         -0.19470        0.90010        3.22350
H         -1.15800       -0.62790        3.69910
C          1.31940       -1.92090        0.55920
H          1.63200       -2.97750        0.69200
H          0.92800       -1.76850       -0.46730
H          0.45390       -1.80500        1.24880
N          4.28900       -1.47130        3.97540
