19
TSA8_9_OMe_I_CN
C          1.62530        0.06670        0.01530
C          1.51990        1.29850        0.60800
O          1.67660       -1.09870        0.72140
H          1.54750        0.02060       -1.06490
I          1.26860        2.99040       -0.64190
C          2.19940       -0.31700        4.73680
C          1.92170       -0.21580        3.43910
C          0.86380        0.68750        2.88010
O          1.43680        1.54200        1.95510
C          3.32730       -1.12680        5.11900
H          1.64080        0.24250        5.47910
H          2.52270       -0.79700        2.75960
H          0.37040        1.27240        3.69140
H          0.05270        0.12090        2.38150
C          0.82600       -2.19550        0.58440
H          1.37440       -3.14760        0.72230
H          0.27450       -2.25360       -0.38390
H          0.08350       -2.13500        1.41820
N          4.23980       -1.78740        5.38180
