19
TSA8_9_OMe_I_CN
C          2.41500       -0.09630        1.58310
C          1.19530        0.78980        1.16530
O          2.38410       -1.43890        1.08500
H          3.34130        0.36820        1.17980
I          1.63880        2.11480       -0.45560
C          2.54470       -0.05290        3.12580
C          1.19470       -0.36740        3.75600
C          0.12690        0.60070        3.19350
O          0.66500        1.51990        2.25340
C          3.60360       -0.90220        3.68660
H          2.79980        0.99110        3.41540
H          0.90900       -1.42610        3.57130
H         -0.25560        1.18140        4.05620
H         -0.74450        0.05520        2.76760
C          1.10030       -1.92640        0.72780
H          1.12560       -3.03520        0.75970
H          0.83440       -1.61650       -0.30520
H          0.29890       -1.63380        1.43290
N          4.42840       -1.55830        4.16470
