20
TSA8_9_CHF2_CHF2_H
C          2.72560       -0.97560       -0.86000
C          1.28690       -1.49050       -0.62420
C          2.70010        0.49740       -1.33020
H          3.27300       -0.91960        0.10790
C          1.15550       -2.60750        0.42140
C          3.50790       -1.91760       -1.80540
C          2.60190       -2.77280       -2.70100
C          1.26550       -2.08750       -2.97390
O          0.51870       -1.75130       -1.80320
H          4.10150       -2.64180       -1.20540
H          4.24060       -1.33850       -2.40590
H          2.36840       -3.73450       -2.20460
H          0.65590       -2.79340       -3.57610
H          1.41220       -1.19870       -3.61300
F          3.99220        0.98110       -1.44150
F          2.05370        0.68490       -2.53260
H          2.17560        1.10890       -0.56490
F         -0.18240       -2.87700        0.64190
F          1.79230       -3.76960        0.03840
H          1.60280       -2.26270        1.37680
