23
TSA8_9_Et_CH2F_Cl
C          2.58980       -0.36880       -1.16300
C          1.16970       -0.95710       -1.33910
C          2.45300        1.09860       -0.67210
H          3.11070       -0.89120       -0.32930
C          1.10330       -2.48760       -1.35140
C          3.40150       -0.52440       -2.48250
C          2.50040       -0.63550       -3.72480
C          1.17660        0.09930       -3.51320
O          0.41120       -0.38170       -2.40680
Cl         4.44640       -1.97550       -2.42170
H          4.09160        0.32970       -2.60920
H          2.23530       -1.69220       -3.93210
H          0.57320       -0.04170       -4.43420
H          1.35190        1.18840       -3.41780
C          3.78330        1.72040       -0.23430
H          1.79500        1.10070        0.22530
H          1.98290        1.75420       -1.42750
H          4.24870        1.10720        0.56670
H          3.59650        2.73820        0.16870
H          4.49630        1.81950       -1.07530
F         -0.21870       -2.89140       -1.34830
H          1.59360       -2.88480       -0.43800
H          1.60650       -2.92600       -2.23250
