23
TSA8_9_Et_CHF2_H
C          1.74560       -0.03530       -0.20500
C          1.33160        0.26930       -1.45540
C          1.87040        0.96580        0.91640
H          1.98510       -1.06730        0.03840
C          1.16930       -0.82400       -2.48150
C          3.94700        2.12180       -3.49770
C          2.62200        2.26030       -3.40030
C          1.93950        2.53100       -2.08780
O          1.01100        1.54330       -1.80550
H          4.39990        1.93020       -4.46520
H          4.58680        2.19820       -2.62450
H          2.01380        2.17900       -4.29650
H          1.40380        3.49770       -2.18340
H          2.67330        2.62920       -1.26010
C          3.30550        1.02150        1.42530
H          1.20280        0.64890        1.74570
H          1.55310        1.98240        0.60950
H          3.62410        0.02190        1.79130
H          3.37470        1.74540        2.26460
H          3.98920        1.34880        0.61300
F         -0.14410       -0.85700       -2.91060
F          1.99300       -0.58480       -3.56370
H          1.42690       -1.82140       -2.06550
