23
TSA8_9_Et_CHF2_H
C          2.51410        0.49220       -0.98940
C          1.10470        0.38970       -1.62220
C          2.39370        1.12150        0.42570
H          2.91770       -0.52820       -0.80370
C          0.96590       -0.66780       -2.72590
C          3.46360        1.23360       -1.96010
C          2.75660        2.30060       -2.81100
C          1.40870        2.71460       -2.21890
O          0.50460        1.63080       -2.00500
H          3.87750        0.49990       -2.68650
H          4.34430        1.65170       -1.43870
H          2.54440        1.89110       -3.82090
H          0.93880        3.41560       -2.93980
H          1.54840        3.29740       -1.29100
C          3.70510        1.09430        1.21560
H          1.66030        0.51600        1.00330
H          2.01820        2.15760        0.41240
H          4.08660        0.05420        1.29610
H          3.52310        1.48110        2.24070
H          4.47910        1.73470        0.74980
F         -0.36660       -0.79400       -3.07300
F          1.69280       -0.34360       -3.85350
H          1.31960       -1.64770       -2.34280
