24
TSA8_9_Me_OMe_CCl3
C          2.17170       -0.19800        2.07790
C          0.89160        0.52830        2.47320
C          1.93510       -0.81100        0.68210
H          3.01310        0.51600        1.97200
O          0.83120        1.87090        2.69020
C          2.58250       -1.28870        3.13020
C          3.77050       -2.07670        2.60020
C          3.69980       -3.39070        2.36180
O         -0.13820       -0.11830        2.59000
C          2.95400       -0.72670        4.54340
H          1.72110       -1.98200        3.25950
H          4.70640       -1.56130        2.40470
H          2.78510       -3.94670        2.54160
H          4.56770       -3.92000        1.98270
H          1.12330       -1.56940        0.71470
H          2.85450       -1.29490        0.29130
H          1.65260       -0.01550       -0.04080
C          1.89120        2.74910        2.64980
H          1.51910        3.77290        2.85910
H          2.36420        2.74420        1.64540
H          2.63500        2.48490        3.42890
Cl         1.59300        0.08970        5.36100
Cl         3.42580       -2.06500        5.63170
Cl         4.32720        0.41760        4.47220
