24
TSA8_9_Me_OMe_CCl3
C          1.75300       -0.07720       -0.11180
C          1.79110        0.32700        1.17720
C          1.67840       -1.49480       -0.60940
H          1.74680        0.69110       -0.88060
O          1.77810        1.66280        1.41470
C          2.93830       -1.20450        4.84230
C          3.49660       -1.39380        3.63580
C          2.65690       -1.61160        2.41270
O          1.82720       -0.51860        2.24630
C          3.77020       -0.95590        6.07300
H          1.85480       -1.22010        4.93200
H          4.57800       -1.37640        3.52830
H          2.04350       -2.52900        2.53860
H          3.34430       -1.73820        1.54850
H          1.58770       -2.24900        0.19080
H          2.57390       -1.71570       -1.22570
H          0.77580       -1.59720       -1.24700
C          1.83600        2.20500        2.68140
H          1.81470        3.31130        2.60770
H          2.77780        1.89790        3.18620
H          0.96470        1.86790        3.28310
Cl         2.70940       -0.73530        7.48740
Cl         4.85150       -2.33840        6.38730
Cl         4.74730        0.52270        5.86920
