24
TSA8_9_Me_OMe_CCl3
C          2.86140       -0.11810        1.96130
C          1.31840       -0.13950        1.71520
C          3.56260       -0.86740        0.81950
H          3.21960        0.93140        1.90200
O          0.74900        1.13500        1.47540
C          3.12560       -0.68520        3.38640
C          2.47250       -2.07870        3.54700
C          1.15190       -2.18040        2.76510
O          0.55570       -0.90920        2.64210
C          4.58610       -0.65030        3.91900
H          2.55220       -0.00460        4.05600
H          3.11830       -2.92860        3.24040
H          0.46800       -2.87930        3.28860
H          1.31410       -2.62350        1.75510
H          3.29760       -1.94350        0.80340
H          4.66130       -0.76440        0.89740
H          3.27060       -0.41940       -0.15430
C          0.65640        1.87590        2.67520
H          0.12690        2.82530        2.45560
H          1.65850        2.15100        3.06660
H          0.05090        1.35160        3.44620
Cl         4.59610       -1.07180        5.65480
Cl         5.68220       -1.79940        3.09950
Cl         5.27390        0.99050        3.77620
