21
TSA8_9_Et_OH_I
C          2.46670       -0.36650        1.22830
C          1.17820        0.35390        1.58810
C          2.31920       -0.91910       -0.21680
H          3.26530        0.40720        1.22790
O          1.18690        1.67380        1.87620
C          2.88010       -1.40780        2.31850
C          2.10540       -2.70690        2.32170
C          0.85770       -2.81810        2.78560
O          0.11010       -0.23540        1.57340
I          4.98900       -1.85510        2.26080
H          2.80820       -0.93830        3.32420
H          2.59830       -3.60860        1.97080
H          0.32540       -1.97160        3.19910
H          0.36400       -3.78440        2.77930
C          3.57630       -1.53880       -0.81810
H          2.03230       -0.07100       -0.87770
H          1.50180       -1.67220       -0.25580
H          4.41380       -0.80950       -0.80160
H          3.37520       -1.82270       -1.87280
H          3.85680       -2.46450       -0.28040
H          2.00190        2.19460        1.88330
