21
TSA8_9_Et_OH_I
C          2.53390       -0.49770        1.28670
C          1.15950        0.07790        1.76600
C          2.32970       -1.20380       -0.08360
H          3.22470        0.35510        1.09970
O          1.32480        1.40250        2.17690
C          3.08800       -1.35870        2.44460
C          2.11490       -2.49110        2.79330
C          0.65440       -2.03520        2.62560
O          0.54120       -0.64440        2.83300
I          5.11710       -2.04720        2.33280
H          3.11900       -0.68530        3.33000
H          2.26840       -3.41000        2.18790
H          0.02000       -2.58300        3.35180
H          0.24400       -2.29640        1.62710
C          3.61460       -1.62490       -0.79170
H          1.83050       -0.47330       -0.75820
H          1.67020       -2.08860       -0.00560
H          4.29580       -0.75540       -0.90960
H          3.36310       -2.01410       -1.80120
H          4.12400       -2.44180       -0.25240
H          0.80540        1.93370        1.52190
