17
TSA8_9_CN_I_NH2
C          2.80520        0.64930        1.17190
C          1.67080        1.60800        0.85880
C          2.28300       -0.72290        0.90460
H          3.60310        0.86300        0.44350
I          1.49280        2.46980       -1.06240
C          3.32170        0.82620        2.66770
C          2.62750       -0.21470        3.50230
C          1.37800       -0.01670        3.90150
O          0.76960        1.84590        1.64810
N          4.77900        0.70420        2.80650
H          3.08030        1.85650        3.01490
H          3.03520       -1.22640        3.53760
H          0.92070        0.95400        3.78850
H          0.79540       -0.84160        4.28700
N          1.94390       -1.81500        0.71340
H          5.12370       -0.27030        2.67730
H          5.04180        0.99760        3.78430
