17
TSA8_9_CF3_Cl_Br
C          1.74820       -1.63410        0.52260
C          0.99540       -0.40550        0.98750
C          1.74450       -1.69990       -1.02550
H          2.80820       -1.51260        0.83730
Cl         1.83720        0.86330        1.86310
C          1.21690       -2.90280        1.25370
C         -0.21770       -3.24500        0.92790
C         -1.17450       -3.23640        1.86220
O         -0.19740       -0.27630        0.75840
Br         2.31810       -4.46750        0.90770
H          1.31650       -2.71120        2.34590
H         -0.48770       -3.51590       -0.08690
H         -0.95310       -2.97640        2.89280
H         -2.19500       -3.49130        1.59590
F          2.49810       -2.76550       -1.47890
F          0.46050       -1.81360       -1.52740
F          2.30480       -0.53990       -1.53180
