18
TSA8_9_OMe_Br_Br
C          0.72220       -0.82140       -1.03020
C          1.60480       -0.98710        0.18580
O          1.48460       -0.33020       -2.12040
H         -0.12740       -0.13770       -0.79180
Br         1.19810       -0.05090        1.80200
C          0.10050       -2.17240       -1.43410
C         -0.76230       -2.72730       -0.32770
C         -0.50610       -3.90660        0.24710
O          2.58580       -1.71390        0.14470
Br        -1.01220       -1.95350       -3.01140
H          0.91540       -2.88450       -1.69490
H         -1.61700       -2.15020        0.01310
H          0.33930       -4.51210       -0.06360
H         -1.14880       -4.27240        1.04120
C          1.70760        1.05820       -1.98730
H          2.19300        1.42270       -2.91580
H          2.40220        1.27110       -1.14620
H          0.75640        1.62630       -1.88470
