18
TSA8_9_OMe_Br_Br
C          1.47810        0.21820       -0.03050
C          1.06030       -0.94650        0.46930
O          1.64700        0.35680       -1.36680
H          1.66200        1.05740        0.63540
Br         0.80000       -1.09310        2.37220
C         -0.97690       -4.35240       -1.95920
C         -0.94030       -3.28910       -1.14960
C          0.11840       -3.12750       -0.09810
O          0.83010       -1.98010       -0.37990
Br        -2.33020       -4.49900       -3.30090
H         -0.23940       -5.14480       -1.87570
H         -1.68780       -2.50880       -1.25780
H          0.81670       -3.99150       -0.09990
H         -0.37700       -3.08050        0.89360
C          1.97180        1.56020       -1.94830
H          2.05280        1.42160       -3.04560
H          2.94510        1.92660       -1.55580
H          1.17610        2.30870       -1.74150
