18
TSA8_9_OMe_Br_Br
C          0.47790       -0.91680       -1.13020
C          1.11970       -1.16330        0.26110
O          1.43700       -0.43850       -2.05520
H         -0.36360       -0.19670       -0.99160
Br         0.09860       -0.43100        1.75410
C         -0.12400       -2.22150       -1.68420
C         -0.77990       -2.96810       -0.53370
C          0.34450       -3.39030        0.44020
O          1.47390       -2.51470        0.48270
Br        -1.38660       -1.85390       -3.11020
H          0.67740       -2.87590       -2.09580
H         -1.50640       -2.28450       -0.04210
H          0.72690       -4.35840        0.05540
H         -0.06220       -3.57760        1.45650
C          1.61630        0.95300       -1.89760
H          2.37860        1.29160       -2.62860
H          2.00230        1.19940       -0.88410
H          0.68030        1.51010       -2.12450
