18
TSA8_9_Cl_I_OMe
C          2.01260       -2.23500        1.05240
C          1.20040       -1.55700       -0.06340
Cl         3.77810       -2.13510        0.79430
H          1.79600       -1.64260        1.96860
I          1.50930       -2.36770       -2.03080
C          1.52360       -3.68170        1.27680
C         -0.00840       -3.76820        1.08100
C         -0.66840       -2.38650        1.20110
O         -0.19850       -1.46170        0.21830
O          2.15370       -4.55960        0.35870
H          1.80720       -3.91300        2.33230
H         -0.23640       -4.11640        0.04900
H         -0.52090       -1.96840        2.22020
H         -1.76020       -2.52210        1.05440
C          2.29650       -5.84450        0.92430
H          3.11020       -5.84810        1.68160
H          2.57850       -6.55240        0.11830
H          1.34100       -6.21850        1.35670
