15
TSA8_9_OH_Br_I
C          1.99700       -0.02630        0.13520
C          1.28810       -1.15330        0.24300
O          2.00360        0.67100       -1.01940
H          2.57400        0.33510        0.98170
Br         1.31410       -2.10430        1.91590
C         -0.67210       -3.94380       -2.93380
C         -0.87290       -2.88470       -2.14340
C         -0.19260       -2.74370       -0.81400
O          0.56850       -1.59540       -0.81960
I         -1.65640       -4.08800       -4.79540
H         -0.00300       -4.74610       -2.63830
H         -1.54760       -2.09770       -2.46660
H          0.45820       -3.62100       -0.60160
H         -0.97360       -2.67500       -0.02590
H          2.51660        1.48690       -1.09840
