25
TSA8_9_OMe_OH_Et
C          2.41930       -1.22680       -0.17860
C          1.71010       -0.98060        1.16530
O          1.42710       -1.11000       -1.18610
H          3.18740       -0.42320       -0.25710
O          2.60790       -0.85510        2.22910
C          3.05830       -2.65410       -0.22500
C          2.55350       -3.52180        0.94120
C          1.05210       -3.28440        1.15020
O          0.69940       -1.93700        1.46690
C          4.60280       -2.65020       -0.22330
H          2.72990       -3.15410       -1.16370
H          3.07570       -3.26470        1.88900
H          0.72380       -3.93640        1.98690
H          0.50440       -3.59630        0.23540
C          1.96910       -0.53050       -2.35380
H          2.74360       -1.18600       -2.80520
H          2.36090        0.49290       -2.15810
H          1.15700       -0.42210       -3.10090
H          2.45010        0.05810        2.57880
C          5.20320       -2.01290       -1.47840
H          4.95980       -3.70350       -0.19330
H          4.98230       -2.12710        0.68110
H          4.85470       -2.55210       -2.38520
H          6.31010       -2.08270       -1.43390
H          4.93270       -0.94210       -1.56580
