21
TSA8_9_Br_Me_OMe
C          3.24520        0.09500        1.86790
C          1.77550        0.34940        1.62210
Br         4.07170       -0.21890        0.12440
H          3.68630        1.02090        2.29760
C          1.16980        1.67420        1.97680
C          3.44570       -1.05010        2.90930
C          3.00830       -2.41230        2.40050
C          1.99130       -3.08300        2.95150
O          1.07310       -0.52050        1.12830
O          4.74090       -1.09980        3.50210
H          2.78430       -0.77030        3.76010
H          3.52620       -2.86630        1.56210
H          1.43580       -2.67660        3.79090
H          1.70680       -4.05380        2.55870
H          1.29230        1.86020        3.06430
H          0.08670        1.69070        1.73010
H          1.67880        2.48030        1.40790
C          5.80190       -1.25120        2.58590
H          6.69660       -1.58220        3.15130
H          6.05940       -0.27560        2.12470
H          5.61560       -2.04140        1.83020
