21
TSA8_9_Br_Me_OMe
C          3.26320       -0.06480        1.73900
C          1.70330        0.04350        1.66920
Br         3.85020       -0.97470        0.10950
H          3.72480        0.94620        1.70260
C          1.22690        1.41730        2.13890
C          3.63010       -0.78120        3.06430
C          2.98180       -2.17420        3.14990
C          1.65630       -2.20010        2.36790
O          1.01020       -0.94660        2.43800
O          4.98940       -0.75610        3.48480
H          3.10640       -0.17730        3.83740
H          3.61230       -3.00320        2.76850
H          1.00180       -2.99150        2.78760
H          1.81590       -2.47940        1.30310
H          1.49720        1.58420        3.20300
H          0.12400        1.48410        2.03230
H          1.68440        2.21380        1.51460
C          5.89790       -1.22500        2.51620
H          6.86450       -1.42570        3.02230
H          6.09300       -0.44110        1.75540
H          5.58740       -2.18910        2.06410
