20
TSA8_9_F_CCl3_CBr3
C          1.63040        0.12760       -0.06240
C          1.45870        1.45540       -0.27110
F          1.93820       -0.38790        1.15570
H          1.49460       -0.59300       -0.85830
C          1.05360        2.01590       -1.62510
C          4.63500        3.53400        1.72790
C          3.29380        3.57880        1.81480
C          2.46010        2.32990        1.81710
O          1.61960        2.37990        0.72060
C          5.53870        4.74480        1.69240
H          5.12400        2.56520        1.66660
H          2.76470        4.52260        1.86900
H          1.85370        2.30400        2.74640
H          3.12200        1.44170        1.79520
Cl         0.83890        0.81040       -2.93210
Cl        -0.48250        2.90090       -1.45090
Cl         2.30490        3.16650       -2.15910
Br         6.78320        4.63030        3.16930
Br         6.54260        4.70420        0.03840
Br         4.63930        6.46980        1.79940
