17
TSA8_9_F_CH2F_Br
C          2.16370        0.45840       -0.02670
C          1.48010        1.55900        0.34660
F          2.55270       -0.49100        0.86200
H          2.39660        0.28730       -1.07290
C          1.03150        2.55190       -0.68720
C          2.63440        4.12980        2.62820
C          3.01980        2.84860        2.65350
C          2.00280        1.74300        2.73190
O          1.15150        1.81450        1.64350
Br         3.92020        5.53890        2.52470
H          1.57970        4.39020        2.66320
H          4.07680        2.60200        2.61950
H          1.41120        1.87890        3.65910
H          2.50420        0.75830        2.80000
F         -0.34280        2.68710       -0.64370
H          1.33080        2.25310       -1.71490
H          1.49590        3.53490       -0.46240
