20
TSA8_9_Cl_Me_CF3
C          3.10640       -1.91540       -1.21800
C          1.60850       -1.47590       -1.11690
Cl         4.16250       -0.48720       -0.97300
H          3.35730       -2.61460       -0.39050
C          0.78500       -2.51880       -0.36220
C          3.32860       -2.58400       -2.58990
C          2.97230       -1.59500       -3.71980
C          1.85760       -0.62790       -3.28560
O          0.97800       -1.26030       -2.38320
C          4.72490       -3.20140       -2.78390
H          2.59700       -3.42060       -2.64590
H          3.83110       -0.97510       -4.05860
H          1.30480       -0.28100       -4.18260
H          2.27590        0.29080       -2.81610
H          0.79410       -3.49000       -0.90130
H         -0.26420       -2.16780       -0.26920
H          1.19450       -2.66220        0.65990
F          5.71220       -2.23290       -2.74590
F          4.96980       -4.13070       -1.78880
F          4.78220       -3.84350       -4.00830
