14
TSA8_9_F_H_Br
C          1.06530        0.40870        1.63070
C          1.76760        1.18070        0.54920
F          2.01110       -0.28640        2.36520
H          0.37650       -0.32580        1.15920
H          1.53850        0.98200       -0.49240
C          0.26460        1.33290        2.56230
C         -0.80990        2.06830        1.80150
C         -0.84440        3.40260        1.73670
O          2.59950        2.02850        0.83160
Br        -0.58630        0.28610        3.95770
H          0.96300        2.04630        3.05420
H         -1.57790        1.49560        1.28910
H         -0.09390        4.00940        2.23370
H         -1.63240        3.89720        1.17870
