14
TSA8_9_F_H_Br
C          1.03180        0.40660        1.79000
C          1.24170        1.28790        0.54110
F          2.24310        0.07640        2.36970
H          0.54580       -0.52550        1.42850
H          0.45120        1.10580       -0.22320
C          0.14950        1.12340        2.83040
C         -0.85940        1.99470        2.09600
C         -0.04840        3.07980        1.33960
O          1.24000        2.65890        0.87940
Br        -0.70740       -0.14890        4.01620
H          0.77350        1.80500        3.45130
H         -1.42670        1.35030        1.38800
H          0.13820        3.89010        2.07520
H         -0.64880        3.51430        0.51220
