14
TSA8_9_I_I_F
C          1.39990        1.62350        0.38580
C          2.18260        1.40800       -0.94340
I          2.41790        0.85330        2.11620
H          0.44620        1.05470        0.33920
I          4.22490        2.08020       -0.84000
C          1.07190        3.11100        0.51150
C          0.30030        3.59280       -0.72860
C          0.32260        2.56400       -1.87500
O          1.61900        2.04180       -2.09510
F          0.33830        3.36250        1.65810
H          2.02250        3.68100        0.57060
H         -0.76170        3.82130       -0.49310
H         -0.03440        3.06140       -2.80040
H         -0.38410        1.72670       -1.67860
