22
TSA8_9_H_NH2_Et
C          1.84550        0.18660        0.00450
C          1.52060        1.26950        0.73440
H          2.07240       -0.77030        0.45920
H          1.88100        0.24320       -1.07900
N          1.21880        2.48650        0.07070
C          4.12560        0.28140        3.99920
C          3.36770        0.09170        2.90790
C          1.86660        0.23410        2.94580
O          1.45560        1.24750        2.09740
C          5.62540        0.15770        3.95640
H          3.66020        0.54700        4.94450
H          3.84340       -0.16410        1.96680
H          1.53360        0.49270        3.97360
H          1.37540       -0.72390        2.67290
H          0.96850        3.32190        0.61870
H          1.25060        2.55820       -0.95750
C          6.07360       -1.25480        3.58620
H          6.03310        0.40390        4.96020
H          6.03560        0.88520        3.22280
H          5.68490       -1.98640        4.32610
H          7.18300       -1.30200        3.58650
H          5.71300       -1.53290        2.57370
