23
TSA8_9_CH2F_CBr3_CH2F
C          1.96930       -0.11270        0.03560
C          1.54230       -1.08650        0.89780
C          1.81310        0.02090       -1.45670
H          2.50650        0.73450        0.43650
C          1.80920       -0.96660        2.39560
C          1.97200       -4.64190       -1.57840
C          1.78400       -3.33940       -1.31950
C          0.53890       -2.83840       -0.62830
O          0.85360       -2.22530        0.56650
C          3.21330       -5.12290       -2.26680
H          1.22160       -5.37350       -1.29180
H          2.55090       -2.63170       -1.61540
H         -0.12210       -3.69940       -0.39130
H         -0.07630       -2.17580       -1.26340
F          3.06720        0.09400       -2.03360
H          1.27490        0.96880       -1.66520
H          1.25650       -0.76580       -1.96770
Br         2.76910        0.61320        3.02560
Br         0.11340       -0.99510        3.33490
Br         2.83820       -2.50760        2.96520
F          3.31220       -4.54620       -3.52030
H          3.17350       -6.22660       -2.38040
H          4.10760       -4.85600       -1.66540
