19
TSA8_9_NO2_H_CH2F
C          1.63280       -0.36540        2.65600
C          1.31780        0.83400        1.74560
N          1.65860       -1.57890        1.84380
H          2.64420       -0.23060        3.09900
H          1.47150        1.81240        2.25600
C          0.58890       -0.35180        3.81020
C         -0.83620       -0.31870        3.23730
C         -0.94520        0.85180        2.24960
O          0.00970        0.73220        1.20720
C          0.77920       -1.46950        4.84630
H          0.73370        0.60440        4.36380
H         -1.08820       -1.26510        2.71760
H         -0.83610        1.82730        2.77590
H         -1.96210        0.84520        1.80560
O          2.45460       -1.66720        0.95770
O          0.83730       -2.58340        2.05680
F         -0.12150       -1.30440        5.88370
H          1.80710       -1.41770        5.26400
H          0.62750       -2.47770        4.41780
