21
TSA8_9_CN_Cl_Et
C          1.63820        0.06040        0.00050
C          1.44390        1.24840        0.68580
C          1.81230       -1.23560        0.58810
H          1.61720        0.12400       -1.08090
Cl         1.19030        2.68960       -0.25990
C          3.82020       -0.73100        3.18640
C          3.24850        0.47240        3.06540
C          1.75300        0.60980        3.08050
O          1.35180        1.40220        2.02950
C          5.30680       -0.94330        3.17770
H          3.18800       -1.60150        3.31000
H          3.85150        1.37370        2.96840
H          1.46860        1.14510        4.01420
H          1.21600       -0.36560        3.08760
N          1.96180       -2.28920        1.00720
C          5.66840       -1.96030        2.10070
H          5.61500       -1.34850        4.16420
H          5.85640        0.00780        3.00280
H          5.17380       -2.93280        2.31810
H          6.76610       -2.12340        2.08140
H          5.33670       -1.60160        1.10390
