21
TSA8_9_CN_Cl_Et
C          2.69700       -0.23040        1.01510
C          1.52780        0.80690        1.04680
C          2.01350       -1.46370        0.58050
H          3.44910        0.04900        0.24850
Cl         1.63370        1.94300       -0.32600
C          3.40350       -0.51870        2.41870
C          3.09080        0.58920        3.40760
C          1.60170        0.82090        3.37740
O          1.30630        1.55840        2.22290
C          4.94530       -0.75710        2.52570
H          2.92950       -1.41920        2.86680
H          3.62130        1.54110        3.16460
H          1.32540        1.42210        4.26360
H          1.02280       -0.13320        3.43140
N          1.43990       -2.43040        0.30060
C          5.52010       -1.96990        1.80570
H          5.15580       -0.93700        3.60790
H          5.52330        0.14740        2.23200
H          4.98940       -2.89520        2.11020
H          6.58930       -2.08150        2.10770
H          5.48150       -1.83600        0.70800
