19
TSA8_9_CCl3_NO2_F
C          1.35080        0.03810        1.66600
C          2.65520        0.71430        2.12350
C          1.51730       -0.81850        0.36020
H          0.69140        0.88400        1.36550
N          3.74810        0.05280        2.60990
C          0.64100       -0.66230        2.86910
C         -0.77320       -1.10380        2.58960
C         -1.74380       -0.24060        2.27250
O          2.70060        1.93630        2.04500
F          1.35380       -1.76410        3.30040
H          0.59070        0.05740        3.71600
H         -1.01820       -2.15960        2.66380
H         -1.54820        0.82410        2.19790
H         -2.74940       -0.60340        2.08610
Cl         2.35590       -2.37710        0.58080
Cl        -0.05940       -1.19440       -0.38880
Cl         2.41770        0.11180       -0.87230
O          4.71660        0.67030        2.93870
O          3.76520       -1.25340        2.74160
