19
TSA8_9_CCl3_NO2_F
C          1.47340       -0.34960        0.29580
C          2.05480       -0.24170        1.52920
C          2.09510       -0.77200       -1.02160
H          0.42620       -0.08280        0.22380
N          3.43810       -0.50960        1.79590
C         -0.97360        0.04680        5.10800
C         -0.22310       -0.58450        4.20080
C         -0.04560       -0.05630        2.80650
O          1.30400        0.16760        2.59450
F         -1.09940       -0.46530        6.35960
H         -1.49030        0.96980        4.86240
H          0.27950       -1.50730        4.47590
H         -0.60160        0.89580        2.66660
H         -0.45210       -0.81740        2.10780
Cl         2.65980       -2.46380       -0.95920
Cl         0.85680       -0.69320       -2.30480
Cl         3.40850        0.33100       -1.51840
O          3.84970       -0.36790        2.90750
O          4.26350       -0.94720        0.87520
