19
TSA8_9_CCl3_NO2_F
C          1.21620       -0.68190        1.17810
C          1.73980        0.73370        1.54690
C          2.18710       -1.52080        0.30270
H          0.32530       -0.47320        0.54160
N          2.93070        0.74560        2.36560
C          0.71700       -1.40790        2.44880
C          0.10930       -0.40820        3.43740
C         -0.32920        0.90010        2.76980
O          0.73810        1.58530        2.11030
F         -0.22070       -2.36630        2.10080
H          1.54570       -1.90530        2.99570
H         -0.64770       -0.88010        4.09940
H         -0.71330        1.56330        3.57210
H         -1.15850        0.70990        2.05520
Cl         3.66580       -2.01130        1.17780
Cl         1.38720       -3.00480       -0.28690
Cl         2.67660       -0.58650       -1.13730
O          2.87830        0.48450        3.53070
O          4.06400        1.16440        1.84870
