23
TSA8_9_Et_I_CHF2
C          1.80880        0.26410        0.02820
C          1.36070        1.34990        0.70990
C          1.90150       -1.18550        0.43970
H          2.14480        0.44860       -0.98860
I          1.39530        3.18680       -0.33530
C          2.53390        0.53070        4.81800
C          2.18860        0.23900        3.55440
C          0.80670        0.52680        3.02240
O          0.86180        1.42890        1.98040
C          3.91190        0.24400        5.33450
H          1.81290        0.98390        5.49270
H          2.92560       -0.21040        2.90060
H          0.19320        0.98890        3.82500
H          0.25690       -0.38650        2.72760
C          3.33910       -1.67950        0.30430
H          1.25930       -1.77910       -0.24510
H          1.56450       -1.39690        1.45820
H          3.69350       -1.55830       -0.74200
H          3.39040       -2.75640        0.57080
H          4.01310       -1.11210        0.98020
F          4.17570       -1.11120        5.25210
F          4.84890        0.94240        4.59470
H          3.98350        0.56060        6.39640
