16
TSA8_9_I_I_NO2
C          2.06660        2.05380       -0.31990
C          0.89720        2.26900       -1.24270
I          1.57380        0.45520        1.03190
H          2.94430        1.72630       -0.91830
I          1.11350        1.99220       -3.32390
C          2.42070        3.35300        0.43870
C          3.59750        3.13090        1.36230
C          3.50290        3.30360        2.68470
O         -0.18880        2.60740       -0.79800
N          2.74380        4.41590       -0.49650
H          1.53110        3.65770        1.03710
H          4.54960        2.82240        0.94000
H          2.57000        3.61140        3.14710
H          4.36850        3.13520        3.31680
O          3.66350        4.30450       -1.25110
O          2.01870        5.51370       -0.51890
