16
TSA8_9_I_I_NO2
C          2.31850        2.20490       -0.50490
C          1.04330        1.68620        0.22430
I          4.01350        0.97220        0.01880
H          2.20700        2.05920       -1.60050
I         -0.65260        1.89250       -1.07000
C          2.48490        3.69580       -0.16550
C          2.63570        3.88190        1.35550
C          1.86640        2.79370        2.12720
O          0.71150        2.39450        1.42240
N          3.56800        4.33190       -0.89330
H          1.52940        4.18640       -0.46000
H          3.69000        3.85060        1.70690
H          1.58860        3.18650        3.12680
H          2.50350        1.90420        2.32390
O          4.70050        3.99240       -0.72850
O          3.30450        5.31150       -1.73150
