19
TSA8_9_CN_CBr3_CN
C          2.53640       -0.14650       -1.44270
C          1.36340       -1.12790       -1.43190
C          2.20000        0.93130       -0.48190
H          3.44090       -0.67440       -1.07320
C          1.46990       -2.51950       -0.84030
C          2.77250        0.42980       -2.89960
C          1.95830        1.69040       -3.07570
C          0.68300        1.65080       -3.43610
O          0.28400       -0.77230       -1.87740
C          4.16270        0.76770       -3.26880
H          2.50130       -0.34020       -3.65580
H          2.37510        2.63830       -2.73010
H          0.22660        0.71460       -3.72330
H          0.09000        2.55460       -3.40070
N          1.87070        1.79530        0.21860
Br         1.85470       -2.39500        1.05490
Br        -0.20490       -3.50130       -1.02070
Br         2.85430       -3.55970       -1.70560
N          5.22510        1.05620       -3.63310
