20
TSA8_9_Br_Et_F
C          2.45510        0.78410        0.73020
C          1.32570        1.71820        0.35510
Br         1.71150       -0.89770        1.36800
H          3.02770        0.54440       -0.19180
C          1.21670        2.28250       -1.03730
C          3.48600        1.35750        1.73360
C          2.94790        1.72030        3.09790
C          2.17850        2.79120        3.31530
O          0.45550        1.98480        1.16990
F          4.47260        0.40100        1.90730
H          3.97720        2.25480        1.29870
H          3.23740        1.11370        3.95130
H          1.89930        3.46050        2.50900
H          1.83880        3.01940        4.32000
C          2.39880        3.19410       -1.35800
H          0.28360        2.88100       -1.12670
H          1.16980        1.45000       -1.77130
H          2.43800        4.03670       -0.63440
H          2.28080        3.60890       -2.38100
H          3.35640        2.63460       -1.31500
