20
TSA8_9_Br_Et_F
C          1.75200        0.12060       -0.33910
C          1.43240        1.35480        0.08260
Br         2.22250       -1.27200        0.89090
H          1.75330       -0.12450       -1.39620
C          1.03350        2.42140       -0.92400
C          4.25380        1.41530        3.27560
C          2.93660        1.63120        3.20000
C          2.31890        2.41470        2.07840
O          1.41710        1.60580        1.41740
F          4.76540        0.69590        4.30800
H          4.92950        1.80430        2.51980
H          2.28800        1.22540        3.97070
H          3.10960        2.78400        1.38910
H          1.78180        3.28590        2.50770
C          1.93800        3.64920       -0.91280
H         -0.00860        2.74100       -0.71110
H          1.05340        2.00350       -1.95490
H          1.87550        4.18070        0.05770
H          1.60440        4.35690       -1.70080
H          2.98910        3.35570       -1.12090
