20
TSA8_9_Br_Et_F
C          2.45830        0.42190        0.69990
C          1.29260        1.39740        0.44710
Br         1.73360       -1.16560        1.56560
H          2.89480        0.07460       -0.26050
C          1.29280        2.25900       -0.83390
C          3.52810        1.08240        1.57360
C          2.87390        1.65870        2.82580
C          1.76890        2.63290        2.40500
O          0.76200        2.01200        1.61700
F          4.50700        0.16860        1.91970
H          4.01280        1.91120        1.02070
H          2.44170        0.85110        3.45450
H          2.20470        3.50910        1.89450
H          1.29380        3.02260        3.32880
C          2.29330        3.41020       -0.89170
H          0.27220        2.67370       -0.97480
H          1.49790        1.58250       -1.69110
H          2.06720        4.17930       -0.13110
H          2.21070        3.90600       -1.88190
H          3.33180        3.04290       -0.78390
