17
TSA8_9_CCl3_F_Br
C          1.81230       -0.01740       -0.04790
C          1.13230       -0.42360       -1.13570
C          2.07810        1.40680        0.40430
H          2.21900       -0.79710        0.59110
F          1.00240       -1.76160       -1.35300
C         -0.29910        1.47460       -5.12700
C         -0.62280        1.27540       -3.84490
C         -0.17110        0.05780       -3.09350
O          0.57810        0.45190       -2.00640
Br        -0.89720        3.04230       -6.04250
H          0.30610        0.75530       -5.67030
H         -1.22970        2.01060       -3.32580
H          0.43670       -0.61040       -3.74380
H         -1.06790       -0.49970       -2.74630
Cl         1.41480        2.70810       -0.62740
Cl         1.39200        1.61070        2.03350
Cl         3.83880        1.64320        0.50520
