17
TSA8_9_CCl3_F_Br
C          1.68530        0.85910       -2.01450
C          1.31070       -0.59530       -1.64920
C          1.53660        1.78450       -0.75370
H          2.76820        0.88310       -2.26820
F          1.79970       -1.51260       -2.56920
C          0.89930        1.20370       -3.31740
C         -0.59370        0.92150       -3.16740
C         -0.78280       -0.51930       -2.67160
O         -0.08780       -0.75270       -1.45660
Br         1.18980        2.97160       -4.06670
H          1.26390        0.51150       -4.10890
H         -1.07030        1.64420       -2.47960
H         -0.46930       -1.24840       -3.45170
H         -1.86600       -0.69070       -2.50230
Cl         2.11710        3.44420       -1.04690
Cl        -0.11110        1.89720       -0.07280
Cl         2.57800        1.14930        0.55330
