21
TSA8_9_NO2_NH2_Me
C          2.94820        1.20460        1.03260
C          1.48180        1.69200        0.75330
N          2.98920       -0.22170        1.34240
H          3.56120        1.35170        0.11510
N          1.49840        2.72740       -0.27630
C          3.49990        2.08450        2.17620
C          2.65190        1.89370        3.44440
C          1.18660        1.58590        3.09510
O          0.80110        2.22430        1.89720
C          4.99510        1.91440        2.46610
H          3.36560        3.13820        1.84290
H          3.01440        1.06970        4.09770
H          0.54030        1.92290        3.93150
H          1.00820        0.49410        3.01040
O          4.03770       -0.76400        1.51820
O          1.89850       -0.95730        1.27810
H          0.51480        3.03190       -0.45280
H          1.84980        2.30730       -1.16670
H          5.58310        2.10120        1.54220
H          5.22960        0.90120        2.84870
H          5.31180        2.65100        3.23520
