23
TSA8_9_OH_OMe_OMe
C          1.40630       -0.08510       -0.44750
C          1.72750        1.03300        0.21020
O          1.10090       -1.21300        0.22760
H          1.39200       -0.09200       -1.53450
O          2.01070        2.14880       -0.51900
C          4.05690        0.70470        4.28660
C          3.13370        0.45950        3.34030
C          2.65200        1.54350        2.42250
O          1.71060        1.00500        1.57090
O          4.53360       -0.25240        5.12990
H          4.45130        1.71120        4.38920
H          2.72200       -0.53760        3.21670
H          3.53450        1.92220        1.86970
H          2.18810        2.35940        3.01690
H          0.86990       -2.02440       -0.24280
C          2.16910        3.43410       -0.04490
H          2.26750        4.12050       -0.91080
H          3.09260        3.54070        0.55220
H          1.27940        3.73800        0.54670
C          4.17530       -1.58600        5.12330
H          4.73470       -2.11800        5.91950
H          4.43030       -2.04610        4.14440
H          3.08740       -1.69350        5.32160
