21
TSA8_9_NH2_NO2_CCl3
C          1.61210       -0.12830        0.01570
C          1.40700       -1.29050        0.69120
N          1.87180       -0.04190       -1.37800
H          1.53940        0.81240        0.55260
N          1.05870       -1.24740        2.07600
C          3.15950       -5.36690       -0.68680
C          3.16220       -4.14650       -0.12790
C          2.47470       -2.97110       -0.75580
O          1.50000       -2.52410        0.11570
C          3.85430       -6.53330       -0.03220
H          2.64340       -5.52210       -1.63070
H          3.67390       -3.98680        0.81750
H          1.99920       -3.24850       -1.72160
H          3.25450       -2.20090       -0.93470
H          2.01450        0.88600       -1.80160
H          1.83110       -0.85220       -2.00720
O          0.86990       -2.26540        2.67010
O          0.94130       -0.10200        2.71530
Cl         3.65060       -7.99890       -1.02410
Cl         5.59930       -6.20380        0.13400
Cl         3.15970       -6.84530        1.58110
