21
TSA8_9_NH2_NO2_CCl3
C          2.56240       -2.41320        0.64710
C          1.21010       -1.84240        0.09640
N          3.68380       -1.54330        0.27590
H          2.52320       -2.42120        1.75850
N          0.21080       -1.82130        1.13990
C          2.74230       -3.85980        0.12270
C          2.68680       -3.87070       -1.42190
C          1.69960       -2.81960       -1.95900
O          0.68410       -2.56960       -1.01480
C          3.96130       -4.63980        0.68570
H          1.83700       -4.40900        0.46760
H          3.66650       -3.70500       -1.91880
H          1.25920       -3.18860       -2.90800
H          2.20820       -1.86620       -2.22400
H          3.52500       -0.58760        0.67070
H          3.79420       -1.45580       -0.75690
O         -0.17550       -2.83910        1.63110
O         -0.28850       -0.67310        1.54030
Cl         3.93140       -6.32350        0.09100
Cl         5.53000       -3.92440        0.21630
Cl         3.89310       -4.71420        2.46840
