26
TSA8_9_CCl3_Et_CF3
C          2.74120        0.72140        0.98140
C          1.49330        1.50210        0.49040
C          2.27560       -0.66010        1.56250
H          3.35190        0.44920        0.09210
C          1.47120        2.11450       -0.92560
C          3.59690        1.69930        1.86070
C          2.73080        2.40970        2.90560
C          1.54860        3.08990        2.21350
O          0.74500        2.17110        1.49510
C          4.86890        1.13020        2.51250
H          3.95290        2.49420        1.17190
H          2.37840        1.71810        3.69300
H          1.90030        3.91240        1.56600
H          0.92240        3.56630        2.99570
Cl         1.28320       -0.55340        3.04110
Cl         1.27780       -1.50820        0.34190
Cl         3.63680       -1.77350        1.86520
C          2.39330        3.30700       -1.16150
H          0.42790        2.40940       -1.16660
H          1.76440        1.31380       -1.63800
H          2.09880        4.17860       -0.54950
H          2.31250        3.61670       -2.22490
H          3.44950        3.03460       -0.96720
F          5.65400        0.50310        1.56170
F          4.56260        0.24490        3.52940
F          5.60100        2.16730        3.06430
