21
TSA8_9_Cl_CCl3_OMe
C          1.82470       -0.06690       -0.17040
C          1.53020       -0.12130       -1.49450
Cl         2.08360        1.42160        0.73730
H          1.87590       -0.96600        0.42930
C          1.23950       -1.43410       -2.20540
C          3.64920        3.31140       -3.95110
C          2.80010        2.30710       -3.66990
C          2.30760        2.08030       -2.27160
O          1.45090        0.99500       -2.27320
O          4.12780        3.55900       -5.20170
H          3.97730        3.96350       -3.14700
H          2.45620        1.63800       -4.45260
H          1.75750        2.98080       -1.92520
H          3.19130        1.90110       -1.62340
Cl         2.41690       -1.63750       -3.52670
Cl         1.31650       -2.90370       -1.18500
Cl        -0.39130       -1.36080       -2.91860
C          3.82160        2.84170       -6.34090
H          4.36480        3.27930       -7.20320
H          2.73090        2.89350       -6.54560
H          4.13720        1.78250       -6.22450
