17
TSA8_9_H_CH2F_Cl
C          1.90440        0.24620       -0.01810
C          1.57290        1.55260        0.00610
H          2.25140       -0.29310        0.85230
H          1.81900       -0.32890       -0.93500
C          1.07420        2.21620       -1.24670
C          2.78180        4.42730        2.81690
C          3.21140        3.16870        2.67620
C          2.26420        2.05550        2.33810
O          1.65030        2.32830        1.12600
Cl         3.90860        5.71340        3.21560
H          1.73140        4.67190        2.68770
H          4.26520        2.94240        2.81220
H          1.48990        1.98550        3.13090
H          2.83980        1.11130        2.32510
F         -0.19410        2.72070       -1.02840
H          1.03530        1.51550       -2.10850
H          1.75420        3.05320       -1.50940
