17
TSA8_9_H_CH2F_Cl
C          3.00710        1.95340        0.44740
C          1.49620        1.56470        0.39580
H          3.58880        1.11780        0.89440
H          3.41110        2.12460       -0.57420
C          0.77970        2.30100       -0.73750
C          3.16530        3.17710        1.34790
C          2.65890        2.84750        2.76430
C          1.61980        1.71090        2.73980
O          0.78260        1.82340        1.60990
Cl         4.85590        3.74460        1.39970
H          2.54190        3.99510        0.92950
H          3.47260        2.51920        3.44700
H          1.01580        1.74490        3.66980
H          2.12010        0.71440        2.73170
F         -0.53420        1.87590       -0.80890
H          1.27340        2.07700       -1.70650
H          0.79470        3.39800       -0.56840
