21
TSA8_9_CF3_OH_Me
C          2.51470        0.55080       -1.67810
C          1.47940       -0.52440       -1.39340
C          2.70030        1.43810       -0.42030
H          3.48680        0.03720       -1.85000
O          1.82460       -1.83020       -1.39400
C          2.16490        1.29550       -3.00960
C          0.87430        2.08540       -2.93430
C         -0.18430        1.78810       -3.69450
O          0.32120       -0.21900       -1.15460
C          3.28860        2.22410       -3.48940
H          2.07090        0.50510       -3.78980
H          0.80120        2.92750       -2.25430
H         -0.16040        0.95880       -4.39470
H         -1.08990        2.38100       -3.61660
F          3.71810        2.35430       -0.60020
F          1.53730        2.11290       -0.09680
F          3.04610        0.63640        0.65420
H          2.72880       -2.12240       -1.57520
H          4.24190        1.66080       -3.57770
H          3.43270        3.08730       -2.81010
H          3.03560        2.63000       -4.49260
