21
TSA8_9_CF3_OH_Me
C          2.00910        0.01010       -0.23320
C          1.59800       -0.66630       -1.34980
C          1.84690        1.42570        0.28070
H          2.57340       -0.58520        0.48150
O          1.92660       -1.97800       -1.43110
C          2.07130        2.06010       -4.63020
C          1.84850        1.74370       -3.34540
C          0.58160        1.04850       -2.91480
O          0.87650       -0.20120       -2.41510
C          3.34540        2.71970       -5.05800
H          1.32820        1.83130       -5.38920
H          2.60460        1.97320       -2.60020
H         -0.07590        0.89750       -3.79730
H         -0.03870        1.63290       -2.21770
F          3.10450        1.96200        0.48390
F          1.15030        2.28520       -0.52220
F          1.19800        1.36850        1.49840
H          2.44320       -2.44730       -0.76020
H          4.20860        2.06650       -4.80950
H          3.46110        3.69740       -4.54550
H          3.32920        2.88660       -6.15570
