20
TSA8_9_Me_F_CBr3
C          2.80980       -1.34690       -0.03150
C          1.41810       -1.27730        0.55670
C          2.96530       -0.22230       -1.06860
H          3.50410       -1.12280        0.80510
F          1.26070       -1.00890        1.87980
C          3.11590       -2.79730       -0.54890
C          2.20460       -3.18040       -1.70280
C          1.30700       -4.16640       -1.60420
O          0.42990       -1.44660       -0.14010
C          4.60230       -3.09380       -0.92260
H          2.90410       -3.46150        0.32100
H          2.27990       -2.64290       -2.64300
H          1.19350       -4.73430       -0.68600
H          0.67590       -4.41010       -2.45220
H          2.28990       -0.37400       -1.93630
H          4.00860       -0.13530       -1.41720
H          2.71180        0.75370       -0.60140
Br         4.82270       -5.00370       -1.22060
Br         5.23990       -2.22560       -2.54490
Br         5.81150       -2.64050        0.52970
