22
TSA8_9_CF3_Me_NH2
C          2.05250        0.20750        0.10380
C          1.64770        1.38970       -0.45780
C          1.84220       -0.45560        1.44990
H          2.65540       -0.43570       -0.53260
C          2.05650        1.65890       -1.88420
C          1.89210        4.23050        2.78300
C          1.70460        3.02140        2.23420
C          0.50560        2.72080        1.36890
O          0.90230        2.39870        0.08950
N          3.02870        4.49680        3.58630
H          1.17220        5.02640        2.61650
H          2.43890        2.24240        2.41070
H         -0.13340        3.62670        1.29390
H         -0.16210        1.94980        1.78670
F          3.07790       -0.65460        2.03580
F          1.05270        0.21700        2.34150
F          1.25970       -1.69000        1.23180
H          2.65760        2.59160       -1.92040
H          1.14670        1.79490       -2.50560
H          2.66160        0.84310       -2.33440
H          3.73700        3.77030        3.76760
H          3.15580        5.43310        3.99630
