21
TSA8_9_I_Me_OMe
C          3.20740        0.10290       -1.88850
C          1.73810       -0.17670       -1.66960
I          4.10600        0.22370        0.07550
H          3.64620       -0.77520       -2.41070
C          1.13510       -1.46100       -2.15470
C          3.40110        1.34610       -2.81330
C          2.99030        2.65270       -2.15990
C          1.96820        3.38510       -2.61530
O          1.03420        0.63860       -1.09180
O          4.68360        1.44520       -3.42650
H          2.72110        1.15960       -3.67510
H          3.53330        3.01530       -1.29340
H          1.38840        3.07040       -3.47750
H          1.70430        4.31370       -2.11980
H          1.25910       -1.53800       -3.25510
H          0.05200       -1.50440       -1.91180
H          1.64570       -2.31840       -1.66820
C          5.76510        1.47120       -2.52330
H          6.66050        1.82410       -3.07350
H          5.99740        0.44700       -2.16530
H          5.61790        2.19200       -1.69360
