21
TSA8_9_I_Me_OMe
C          1.93390       -0.00730       -0.21330
C          1.49150       -0.12610       -1.49020
I          2.45450        1.71810        0.91420
H          2.03820       -0.90660        0.38760
C          1.16010       -1.49510       -2.01540
C          3.97430        2.48220       -3.74010
C          3.37130        2.00370       -2.63410
C          1.88740        2.14990       -2.41550
O          1.30620        0.89990       -2.37300
O          5.30560        2.33520       -3.99130
H          3.38220        3.00510       -4.48340
H          3.94370        1.47630       -1.88040
H          1.42870        2.70670       -3.26040
H          1.65790        2.73600       -1.51040
H          1.80030       -1.70780       -2.89770
H          0.09600       -1.52250       -2.32780
H          1.32670       -2.29760       -1.26440
C          6.20430        1.64440       -3.20430
H          7.20690        1.68590       -3.67800
H          5.89890        0.57930       -3.11750
H          6.26850        2.10600       -2.19550
