21
TSA8_9_I_Me_OMe
C          3.25380        0.22710       -1.75380
C          1.69750        0.10620       -1.65030
I          3.91880        1.02410        0.14550
H          3.72040       -0.77940       -1.82780
C          1.21350       -1.25300       -2.14940
C          3.58270        1.06360       -3.01870
C          2.92750        2.45340       -2.95720
C          1.59710        2.38370       -2.18520
O          0.98510        1.12380       -2.36180
O          4.92800        1.08820       -3.48220
H          3.04000        0.52830       -3.82860
H          3.55310        3.23990       -2.48730
H          0.92470        3.19100       -2.54190
H          1.74710        2.57850       -1.10000
H          1.46110       -1.38580       -3.22420
H          0.11320       -1.32680       -2.01930
H          1.68780       -2.06540       -1.55960
C          5.86720        1.43950       -2.49650
H          6.82410        1.67760       -3.00360
H          6.06870        0.57680       -1.82720
H          5.58190        2.35730       -1.94180
