19
TSA8_9_CF3_F_NO2
C          1.81890        0.03270        0.05600
C          1.13620        1.07100        0.56580
C          2.10930       -1.26100        0.77650
H          2.19080        0.12020       -0.96090
F          0.94390        2.16990       -0.21540
C         -0.18000        2.55520        4.77640
C         -0.50210        1.73170        3.76240
C         -0.14310        2.05400        2.34090
O          0.63960        1.04350        1.82680
N         -0.51790        2.26520        6.12830
H          0.35330        3.47860        4.56550
H         -1.03930        0.80740        3.95570
H          0.40450        3.02130        2.27810
H         -1.07930        2.13560        1.74780
F          3.47780       -1.44000        0.84370
F          1.59490       -1.28890        2.06030
F          1.55660       -2.30400        0.05740
O         -1.10310        1.26470        6.41710
O         -0.18680        3.11590        7.07420
