20
TSA8_9_OMe_NH2_F
C          0.54070       -1.25820       -0.56590
C          1.32850       -1.22160        0.77510
O          1.42770       -1.21080       -1.66850
H         -0.18090       -0.40350       -0.56750
N          0.70650       -0.34840        1.77030
C         -0.29460       -2.54610       -0.67160
C         -0.87090       -2.85510        0.70010
C          0.32030       -3.18750        1.62920
O          1.54290       -2.51590        1.31090
F         -1.29270       -2.39630       -1.61800
H          0.34840       -3.40620       -0.96710
H         -1.42490       -1.95830        1.05590
H          0.52130       -4.26980        1.48670
H          0.04240       -3.04060        2.69460
C          1.68590        0.12830       -2.03090
H          2.46550        0.13460       -2.81980
H          2.08530        0.71500       -1.17350
H          0.77650        0.60420       -2.45970
H          1.30980       -0.35020        2.62390
H          0.71220        0.62790        1.39690
