22
TSA8_9_CH2F_CCl3_NH2
C          2.56950       -1.61910       -0.35700
C          1.48110       -1.38730        0.68050
C          2.67480       -0.37730       -1.26590
H          3.53720       -1.71800        0.18300
C          1.82060       -1.32780        2.15590
C          2.32600       -2.96450       -1.10780
C          1.09340       -2.93480       -1.99120
C          0.04690       -3.73830       -1.78260
O          0.32260       -1.24120        0.31570
N          3.49460       -3.34440       -1.90390
H          2.20780       -3.74450       -0.32070
H          1.05860       -2.24370       -2.82820
H          0.03560       -4.44710       -0.96110
H         -0.81300       -3.68610       -2.44280
F          3.73900       -0.47620       -2.14110
H          2.84390        0.52390       -0.63870
H          1.73830       -0.21680       -1.83960
Cl         2.57070       -2.85980        2.67320
Cl         2.96120        0.00760        2.46420
Cl         0.37000       -1.05670        3.16250
H          3.58420       -2.74200       -2.75140
H          3.37830       -4.33020       -2.23340
