22
TSA8_9_CH2F_CCl3_NH2
C          1.99120       -0.13240        0.01940
C          1.57300       -1.20170        0.76680
C          1.85980        0.15100       -1.45440
H          2.49590        0.68330        0.51810
C          1.80850       -1.23410        2.27510
C          2.24170       -4.48950       -1.96440
C          1.98100       -3.22020       -1.61840
C          0.68380       -2.82750       -0.95420
O          0.92110       -2.31550        0.30400
N          3.47070       -4.83880       -2.57840
H          1.51140       -5.27100       -1.77490
H          2.72750       -2.45870       -1.81560
H          0.04600       -3.72860       -0.82720
H          0.07310       -2.13410       -1.55980
F          3.12110        0.32760       -1.99150
H          1.29170        1.09700       -1.57610
H          1.34420       -0.59720       -2.05740
Cl         2.76370       -2.68590        2.67000
Cl         2.66610        0.16870        2.98900
Cl         0.23500       -1.36200        3.10140
H          4.19180       -4.12820       -2.77110
H          3.65180       -5.81910       -2.83580
