20
TSA8_9_CF3_H_CBr3
C          1.52190       -1.84460        1.68140
C          1.39980       -0.33490        1.69890
C          1.63410       -2.32700        0.21520
H          2.49970       -2.06490        2.15990
H          2.18960        0.25920        2.14810
C          0.39710       -2.47990        2.58530
C         -0.99890       -2.15220        2.08110
C         -1.84220       -1.37990        2.77430
O          0.43750        0.23170        1.20460
C          0.50220       -4.00870        2.88620
H          0.54470       -1.98920        3.57550
H         -1.33650       -2.55610        1.13300
H         -1.55760       -0.95140        3.73010
H         -2.83200       -1.17160        2.38150
F          2.63070       -1.61100       -0.42700
F          1.99620       -3.65530        0.15690
F          0.45150       -2.13720       -0.47570
Br         2.27870       -4.50920        3.49490
Br        -0.70450       -4.45200        4.34700
Br        -0.01520       -5.18360        1.42020
