20
TSA8_9_CF3_H_CBr3
C          1.82520       -0.05550        0.03340
C          1.10130       -0.19960        1.15470
C          2.17600       -1.16600       -0.92610
H          2.18400        0.93960       -0.21340
H          0.90430        0.68270        1.75960
C         -0.31040       -3.63250        3.96120
C         -0.56680       -2.98600        2.81190
C         -0.22510       -1.53640        2.62760
O          0.61260       -1.40080        1.54300
C         -0.65200       -5.08780        4.15150
H          0.15460       -3.09520        4.78340
H         -1.03770       -3.51250        1.98650
H          0.26490       -1.12120        3.53670
H         -1.16400       -0.97190        2.44030
F          3.55140       -1.26170       -1.01950
F          1.67190       -2.39330       -0.53460
F          1.66340       -0.85600       -2.17170
Br        -0.16530       -5.65170        5.94150
Br        -2.55600       -5.37990        3.92280
Br         0.32160       -6.18640        2.88320
