14
TSA8_9_Cl_Br_Cl
C          1.53670        0.38470        0.00060
C          2.22000        1.39130       -0.57950
Cl         2.30480       -0.78290        1.07170
H          0.47750        0.24940       -0.17730
Br         4.10190        1.59750       -0.26950
C         -1.09170        4.13460       -0.47570
C         -0.44590        2.96350       -0.47110
C          0.28850        2.45440       -1.68620
O          1.63700        2.29890       -1.41520
Cl        -1.93300        4.68840        0.96290
H         -1.10790        4.76190       -1.36170
H         -0.45210        2.36490        0.43360
H          0.19010        3.18070       -2.52130
H         -0.14980        1.49460       -2.03280
