14
TSA8_9_Cl_Br_Cl
C          0.80180        1.51540        0.27500
C          1.87900        1.46270       -0.85210
Cl         1.50960        1.18070        1.88640
H          0.04100        0.72500        0.09540
Br         3.48650        2.45420       -0.37040
C          0.10890        2.87980        0.20240
C         -0.51610        3.07520       -1.19290
C          0.05760        2.09350       -2.23260
O          1.46080        1.97390       -2.12060
Cl        -1.13510        3.08330        1.47130
H          0.87900        3.66640        0.35030
H         -1.61850        2.93040       -1.19030
H         -0.20480        2.45560       -3.24780
H         -0.40630        1.08650       -2.13250
