20
TSA8_9_CBr3_F_CCl3
C          1.71770       -0.41580        2.31230
C          2.72400       -1.51020        2.60380
C          1.40970       -0.35560        0.78040
H          2.20830        0.55590        2.53690
F          2.41890       -2.81790        2.39860
C          0.44590       -0.48720        3.24240
C         -0.37180       -1.74650        3.02270
C         -1.63160       -1.70290        2.57380
O          3.83370       -1.22020        3.02320
C          0.75160       -0.31990        4.76630
H         -0.17910        0.39360        2.98170
H          0.06440       -2.71500        3.24240
H         -2.11540       -0.75950        2.34340
H         -2.18800       -2.62360        2.43290
Br         0.21160        1.11320        0.34750
Br         3.05090       -0.00760       -0.20510
Br         0.65180       -1.98350        0.02480
Cl        -0.77970       -0.19430        5.68060
Cl         1.66890       -1.68270        5.47470
Cl         1.65470        1.18750        5.08800
