23
TSA8_9_CBr3_Et_Br
C          1.07850       -0.90230        1.11680
C          2.42330       -0.55310        1.76600
C          1.15360       -0.95240       -0.45360
H          0.43520       -0.02080        1.33530
C          3.66160       -1.42840        1.68310
C          0.38400       -2.10200        1.86190
C         -1.08550       -2.25280        1.54270
C         -1.97730       -1.29020        1.80530
O          2.49530        0.50570        2.37630
Br         1.22110       -3.84830        1.63180
H          0.43630       -1.89540        2.95360
H         -1.44610       -3.17850        1.10320
H         -1.67840       -0.35070        2.25810
H         -3.02490       -1.44430        1.56740
Br        -0.60020       -0.98660       -1.28870
Br         1.98330        0.67750       -1.11790
Br         2.14840       -2.43360       -1.22660
C          4.86650       -0.83340        2.41510
H          3.95360       -1.55750        0.62420
H          3.46080       -2.41690        2.13310
H          5.13380        0.15420        1.98180
H          5.73880       -1.51270        2.30970
H          4.64040       -0.71280        3.49610
