19
TSA8_9_F_NH2_CCl3
C          2.77270        1.74360        1.32260
C          1.37990        1.05010        1.16690
F          3.77070        0.82090        1.05250
H          2.86940        2.55910        0.57450
N          0.38530        1.98650        0.65000
C          2.90400        2.25760        2.77120
C          2.78840        1.05700        3.74190
C          1.91240       -0.06460        3.15600
O          0.87170        0.47610        2.37400
C          4.16010        3.12490        3.04690
H          2.02000        2.90790        2.95320
H          3.76490        0.59580        4.00370
H          1.49310       -0.67300        3.98440
H          2.51680       -0.76570        2.53580
H          0.30510        2.81330        1.28460
H          0.67600        2.30720       -0.30150
Cl         4.15090        3.69950        4.73780
Cl         5.68730        2.23750        2.77200
Cl         4.16280        4.57190        2.00120
