27
TSA8_9_OMe_Me_Et
C          1.25490       -0.26930        1.75880
C          1.60010        0.95040        0.93160
O          2.38330       -1.12890        1.78990
H          0.35560       -0.76980        1.32090
C          0.79390        1.30850       -0.27900
C          0.88230        0.14290        3.20700
C         -0.35540        1.01910        3.19810
C         -0.33930        2.27940        3.63860
O          2.55050        1.65170        1.25140
C          0.68280       -1.07130        4.14950
H          1.74070        0.71440        3.62870
H         -1.28910        0.61650        2.81490
H          0.56940        2.72900        4.02640
H         -1.24720        2.87340        3.61060
C          2.28090       -2.11930        0.78830
H          1.49980       -2.86450        1.05300
H          3.24910       -2.65690        0.72580
H          2.09260       -1.67540       -0.21380
H          1.19370        2.22770       -0.75770
H         -0.26100        1.49030        0.01750
H          0.83150        0.47790       -1.01250
C         -0.44340       -2.03120        3.75190
H          0.47270       -0.69280        5.17390
H          1.63000       -1.65050        4.19920
H         -1.42450       -1.51520        3.74360
H         -0.49530       -2.85540        4.49400
H         -0.25290       -2.48020        2.75710
