27
TSA8_9_OMe_Me_Et
C          1.44810        0.06420       -0.02230
C          1.36180        1.30450        0.48150
O          1.45220       -1.00070        0.81390
H          1.50100       -0.08950       -1.09800
C          1.33890        2.51300       -0.41020
C          0.77570        0.06810        4.35250
C         -0.08690        0.32670        3.35350
C          0.06890        1.53890        2.48410
O          1.27980        1.46770        1.82320
C          0.71750       -1.14520        5.25650
H          1.58470        0.77020        4.53570
H         -0.91500       -0.33880        3.13690
H          0.02900        2.46610        3.09420
H         -0.77820        1.56360        1.76150
C          1.41380       -2.29920        0.36390
H          1.44770       -2.98570        1.23480
H          2.28690       -2.50570       -0.29380
H          0.47120       -2.47850       -0.19470
H          2.19510        3.17270       -0.15910
H          0.39250        3.06990       -0.24890
H          1.40630        2.23660       -1.48430
C         -0.38850       -2.15210        4.93350
H          0.59060       -0.79600        6.30330
H          1.69160       -1.67340        5.17950
H         -1.38890       -1.68040        5.03180
H         -0.33170       -3.00430        5.64280
H         -0.25850       -2.54710        3.90260
