23
TSA8_9_CH2F_Et_I
C          1.74820       -0.11780        0.01990
C          1.48700       -1.44630       -0.05400
C          1.91210        0.81860       -1.14580
H          1.82180        0.34670        0.99960
C          1.27360       -2.23690        1.21410
C          3.72730       -3.83940       -3.37470
C          2.81150       -3.54850       -2.44850
C          2.33600       -2.14200       -2.23680
O          1.39700       -2.13820       -1.22330
I          4.37900       -5.83000       -3.63710
H          4.15170       -3.06120       -4.00140
H          2.40550       -4.34710       -1.83280
H          1.87040       -1.76680       -3.17290
H          3.21490       -1.51060       -1.97580
F          3.17720        1.37340       -1.11570
H          1.16040        1.62910       -1.05370
H          1.74720        0.34190       -2.12800
C         -0.11390       -2.87040        1.23440
H          1.38420       -1.60000        2.11890
H          2.04090       -3.03920        1.26300
H         -0.89620       -2.08340        1.20690
H         -0.23720       -3.46390        2.16460
H         -0.24660       -3.54790        0.36380
