23
TSA8_9_CH2F_Et_I
C          2.78100       -1.13190       -0.69520
C          1.33840       -1.55730       -0.33680
C          2.74810        0.28920       -1.29290
H          3.39950       -1.02360        0.22260
C          1.24480       -2.71530        0.67200
C          3.43810       -2.16130       -1.65330
C          2.40340       -2.98230       -2.43930
C          1.12240       -2.17920       -2.66690
O          0.47870       -1.74630       -1.46630
I          4.71350       -3.53030       -0.59470
H          4.11990       -1.63240       -2.35260
H          2.10350       -3.88590       -1.87260
H          0.41630       -2.83750       -3.21530
H          1.32430       -1.31510       -3.32940
F          4.03510        0.73210       -1.54450
H          2.28490        0.98560       -0.56110
H          2.16580        0.35370       -2.22980
C         -0.19800       -2.95400        1.10550
H          1.84090       -2.45130        1.57160
H          1.65120       -3.65650        0.25680
H         -0.62230       -2.03140        1.55610
H         -0.22960       -3.76760        1.86020
H         -0.82000       -3.25690        0.23650
