17
TSA8_9_F_CF3_Br
C          2.06920        1.50720       -1.33960
C          0.86120        1.02220       -2.10450
F          1.73870        1.52430        0.00390
H          2.91310        0.79690       -1.48000
C          0.91680       -0.25110       -2.90540
C          2.51570        2.91120       -1.80910
C          3.71580        3.41620       -1.04080
C          3.67170        3.69150        0.26720
O         -0.17810        1.66380       -2.05590
Br         2.97990        2.86890       -3.70160
H          1.68440        3.63910       -1.68480
H          4.65130        3.58640       -1.56610
H          2.76180        3.56590        0.84390
H          4.55800        4.06200        0.77170
F         -0.30560       -0.49980       -3.50570
F          1.88330       -0.14760       -3.88710
F          1.22890       -1.30810       -2.07160
