17
TSA8_9_F_CF3_Br
C          1.83360        0.10780       -0.17760
C          1.57830        0.64570       -1.39300
F          2.17340        0.85350        0.90510
H          1.74240       -0.96090       -0.01540
C          1.14450       -0.22880       -2.54540
C          3.07090        5.00870       -2.23420
C          3.21600        3.69510       -2.03260
C          2.40810        2.95200       -1.00930
O          1.66580        1.98180       -1.65840
Br         4.12390        5.90360       -3.55520
H          2.35710        5.58850       -1.65730
H          3.93760        3.14000       -2.62500
H          1.71510        3.63690       -0.47470
H          3.12690        2.52480       -0.28520
F         -0.09660        0.18840       -2.98810
F          2.05460       -0.09630       -3.57740
F          1.06310       -1.56710       -2.19760
