17
TSA8_9_F_CF3_Br
C          2.97320        1.24710       -1.85890
C          1.49850        1.12120       -1.35160
F          3.84020        1.07610       -0.79170
H          3.20970        0.45540       -2.60170
C          0.58700        0.43640       -2.37710
C          3.17520        2.64310       -2.45150
C          2.87940        3.71580       -1.38860
C          1.84700        3.21410       -0.36380
O          0.90450        2.37110       -0.98740
Br         4.95470        2.87730       -3.18960
H          2.44880        2.76770       -3.28210
H          3.78210        4.02010       -0.81610
H          1.33890        4.08260        0.10380
H          2.34440        2.66530        0.46980
F         -0.68300        0.30710       -1.84540
F          0.51170        1.17970       -3.54140
F          1.06840       -0.82640       -2.67200
