23
TSA8_9_CH2F_Et_F
C          2.57840       -1.45440       -0.78860
C          1.26290       -1.99840       -0.26090
C          2.39990        0.01210       -1.21310
H          3.32250       -1.44120        0.03850
C          1.11490       -2.45200        1.16900
C          3.17430       -2.37460       -1.89210
C          2.28820       -2.62520       -3.09300
C          1.98070       -1.69020       -3.99590
O          0.28960       -2.05050       -1.00000
F          3.44670       -3.60340       -1.31460
H          4.14450       -1.96280       -2.24280
H          1.90390       -3.62970       -3.24680
H          1.34820       -1.94710       -4.83980
H          2.36070       -0.67920       -3.92470
F          3.59780        0.53250       -1.66710
H          2.06810        0.61080       -0.33760
H          1.62430        0.12470       -1.99490
C          2.00410       -3.65400        1.47470
H          0.05960       -2.74840        1.35610
H          1.36690       -1.61180        1.85020
H          1.74400       -4.50090        0.80320
H          1.84510       -3.97430        2.52600
H          3.07620       -3.40070        1.34580
