23
TSA8_9_CH2F_Et_F
C          1.69960       -0.17500        0.02950
C          1.35330       -1.47970       -0.12230
C          1.98610        0.81610       -1.06650
H          1.75060        0.23530        1.03450
C          1.00310       -2.29430        1.10110
C          3.54420       -3.66890       -3.65710
C          2.65250       -3.45250       -2.68720
C          2.19640       -2.06330       -2.35230
O          1.27390       -2.11990       -1.32370
F          3.94530       -4.93500       -3.94240
H          3.95840       -2.84120       -4.22520
H          2.25530       -4.29920       -2.13430
H          1.71740       -1.61510       -3.24890
H          3.09110       -1.47020       -2.06120
F          3.28440        1.27370       -0.94560
H          1.29070        1.67340       -0.95260
H          1.83000        0.42470       -2.08530
C          1.94030       -3.48960        1.24410
H         -0.04180       -2.65880        1.00260
H          1.06720       -1.68710        2.03070
H          1.86490       -4.15260        0.35670
H          1.66070       -4.07590        2.14460
H          2.99020       -3.14330        1.35360
