20
TSA8_9_NO2_F_OMe
C          2.92970       -1.66100       -0.05660
C          1.55300       -1.37580        0.49530
N          3.34990       -0.54610       -0.89340
H          3.61240       -1.74160        0.82030
F          1.37840       -1.26120        1.83820
C          2.96760       -3.04610       -0.78720
C          2.12660       -3.11730       -2.05110
C          1.04640       -3.90020       -2.14270
O          0.59220       -1.24380       -0.24660
O          4.27510       -3.56620       -1.00740
H          2.52520       -3.75110       -0.04750
H          2.39710       -2.52420       -2.91740
H          0.72350       -4.51790       -1.31070
H          0.47220       -3.92410       -3.06340
O          4.28140        0.12570       -0.56740
O          2.65920       -0.20920       -1.96230
C          5.12660       -2.71100       -1.73870
H          5.92470       -3.33040       -2.19630
H          5.62520       -1.99350       -1.05580
H          4.62020       -2.19690       -2.58120
