22
TSA8_9_NH2_CBr3_CHF2
C          2.84360       -0.98690       -1.26450
C          1.52380       -1.46500       -0.56330
N          2.86180        0.47570       -1.36050
H          3.73500       -1.29470       -0.67530
C          1.75380       -2.23630        0.74880
C          2.94410       -1.64980       -2.65860
C          1.66810       -1.38620       -3.48080
C          0.41920       -1.43990       -2.58360
O          0.68020       -2.21580       -1.43310
C          4.21620       -1.29230       -3.44080
H          2.97600       -2.74740       -2.47590
H          1.66700       -0.41730       -4.02650
H         -0.42780       -1.86900       -3.15710
H          0.09210       -0.41470       -2.28900
H          2.02610        0.83170       -1.87640
H          2.84930        0.88560       -0.39870
Br         0.04660       -2.70520        1.53860
Br         2.75170       -3.87520        0.44260
Br         2.70550       -1.14360        2.04050
F          4.26060        0.05940       -3.73170
F          5.33840       -1.63810       -2.70830
H          4.23380       -1.86060       -4.39530
