17
TSA8_9_Cl_CCl3_Cl
C          2.85640       -1.39180       -1.34760
C          1.53520       -2.03550       -0.96910
Cl         2.72840        0.37310       -1.10020
H          3.64420       -1.72710       -0.63920
C          1.41560       -2.93990        0.24290
C          3.33630       -1.75060       -2.78290
C          2.35430       -1.42790       -3.89250
C          1.99080       -0.18430       -4.22240
O          0.54010       -1.77980       -1.63260
Cl         3.71880       -3.49500       -2.86830
H          4.29020       -1.21810       -2.98740
H          1.93310       -2.24430       -4.47300
H          1.28940       -0.02740       -5.03550
H          2.38590        0.68460       -3.71360
Cl         2.46910       -4.36690        0.08700
Cl         1.88340       -2.04350        1.71030
Cl        -0.25930       -3.52230        0.46840
