17
TSA8_9_Cl_CCl3_Cl
C          3.05010       -0.95480       -1.25630
C          1.58960       -1.40940       -1.00210
Cl         3.02560        0.83550       -1.35150
H          3.72750       -1.14890       -0.39950
C          1.34110       -2.76100       -0.29240
C          3.62890       -1.54320       -2.55850
C          2.53940       -1.80400       -3.61230
C          1.29860       -0.94400       -3.35500
O          0.68440       -1.20710       -2.09430
Cl         4.54740       -3.04760       -2.25890
H          4.37760       -0.82520       -2.95620
H          2.19440       -2.85610       -3.57310
H          0.56180       -1.18290       -4.15010
H          1.53030        0.13550       -3.45790
Cl         1.63260       -4.18730       -1.31610
Cl         2.33410       -2.90170        1.18230
Cl        -0.36400       -2.82100        0.22040
