23
TSA8_9_CF3_Et_H
C          1.82270       -0.13500        0.06150
C          1.38170       -1.41410       -0.01220
C          1.97550        0.82870       -1.09030
H          2.08240        0.26880        1.03630
C          1.21870       -2.22550        1.25430
C          4.15210       -3.47270       -1.64800
C          3.35920       -2.40790       -1.79720
C          1.89290       -2.54220       -2.14360
O          1.03490       -1.99790       -1.19230
H          5.20020       -3.33650       -1.40240
H          3.76880       -4.48120       -1.76650
H          3.78550       -1.41850       -1.67260
H          1.62220       -3.61210       -2.27340
H          1.71690       -2.04030       -3.11680
F          3.29970        1.21270       -1.18490
F          1.57480        0.30010       -2.30040
F          1.20580        1.94740       -0.83400
C          2.08550       -3.47960        1.23360
H          0.15260       -2.52240        1.35110
H          1.49010       -1.63130        2.15420
H          1.81130       -4.13010        0.37630
H          1.93070       -4.05290        2.17170
H          3.15840       -3.20240        1.15980
