23
TSA8_9_CF3_Et_H
C          2.79930       -0.88060       -0.28550
C          1.39330       -1.51160       -0.19250
C          2.69270        0.54840       -0.86510
H          3.23040       -0.75880        0.73270
C          1.03880       -2.39240        1.02570
C          3.72160       -1.80830       -1.10200
C          3.07040       -2.19540       -2.42550
C          1.68590       -2.79550       -2.15010
O          0.83580       -1.90800       -1.44090
H          4.71660       -1.34410       -1.26840
H          3.89530       -2.74670       -0.53850
H          2.98760       -1.32350       -3.10330
H          1.77160       -3.76620       -1.63290
H          1.21530       -3.01810       -3.13030
F          3.95290        1.11030       -0.96930
F          2.08710        0.57100       -2.10770
F          1.93820        1.33090       -0.00870
C          1.88540       -3.64620        1.24080
H         -0.03270       -2.67760        0.95630
H          1.15660       -1.76060        1.93240
H          1.78420       -4.36740        0.41170
H          1.53770       -4.15940        2.16220
H          2.95010       -3.37890        1.39170
