19
TSA8_9_NO2_CCl3_H
C          2.60340       -1.12050        0.35990
C          1.37200       -0.51880        1.01500
N          2.76900       -0.56060       -0.96980
H          3.50030       -0.86610        0.97070
C          1.48780        0.34350        2.25580
C          2.50850       -2.65640        0.26480
C          2.41000       -3.29880        1.62350
C          1.36510       -4.05460        1.97360
O          0.27390       -0.72140        0.51540
H          3.42420       -3.04500       -0.23040
H          1.63570       -2.93590       -0.36670
H          3.21310       -3.14370        2.33780
H          1.32670       -4.50260        2.96100
H          0.54380       -4.23250        1.28600
O          3.75170        0.06230       -1.23840
O          1.84420       -0.73730       -1.89010
Cl         2.22720       -0.57040        3.59450
Cl         2.50020        1.76720        1.90340
Cl        -0.10870        0.92700        2.80810
