19
TSA8_9_NO2_CCl3_H
C          2.05400       -0.04090        0.21390
C          1.58150       -0.47670        1.43240
N          2.23190       -0.74140       -1.02250
H          2.34180        0.99860        0.14510
C          1.47090        0.50210        2.60380
C          2.99370       -4.64090        0.61210
C          2.68590       -3.42280        1.06260
C          1.25310       -3.00020        1.24320
O          1.18080       -1.73870        1.79280
H          4.03350       -4.92830        0.49350
H          2.21640       -5.35650        0.36240
H          3.48760       -2.73150        1.30660
H          0.78460       -3.70140        1.96570
H          0.63760       -3.07430        0.32870
O          2.69240       -0.14570       -1.94910
O          1.84270       -1.97520       -1.21550
Cl         2.49070       -0.09520        3.93800
Cl         1.95110        2.20430        2.30490
Cl        -0.21810        0.53570        3.17300
