15
TSA8_9_OH_I_H
C          1.58150       -1.84190        0.59450
C          1.05490       -0.61380        1.29830
O          1.41100       -1.72340       -0.79590
H          2.67500       -1.87160        0.78740
I          2.35410        0.58560        2.45320
C          1.04140       -3.19930        1.11100
C         -0.43390       -3.44970        0.91140
C         -1.38090       -2.83420        1.62430
O         -0.10540       -0.26050        1.16630
H          1.58430       -3.98400        0.54000
H          1.29470       -3.33800        2.18480
H         -0.73810       -4.19590        0.18280
H         -1.13140       -2.11510        2.39600
H         -2.42640       -3.06840        1.45180
H          0.43600       -1.70620       -0.98090
