23
TSA8_9_CBr3_Et_Cl
C          1.99980       -1.73590       -0.28960
C          0.68880       -2.00770        0.43570
C          1.93210       -0.36120       -1.03920
H          2.80510       -1.64690        0.47410
C          0.67210       -2.12510        1.94310
C          2.31510       -2.97020       -1.19190
C          3.62160       -2.86840       -1.93010
C          3.68150       -2.92230       -3.26490
O         -0.34240       -2.15440       -0.20580
Cl         2.40770       -4.45790       -0.19940
H          1.48290       -3.11050       -1.91610
H          4.54210       -2.75790       -1.36320
H          2.78380       -3.03700       -3.86460
H          4.63980       -2.85000       -3.76930
Br         1.38010        1.05430        0.17740
Br         3.66140        0.22640       -1.70930
Br         0.68830       -0.36790       -2.53640
C         -0.71220       -2.45990        2.49940
H          1.01810       -1.16640        2.38580
H          1.37480       -2.92920        2.24810
H         -1.44020       -1.66480        2.23250
H         -0.66070       -2.54060        3.60520
H         -1.06290       -3.43190        2.08990
