20
TSA8_9_I_Et_Cl
C          2.97030       -0.77480        1.89980
C          1.40620       -0.79720        1.85730
I          3.77690       -0.74000       -0.10050
H          3.33700        0.17310        2.35090
C          0.82380        0.13470        2.93150
C          3.45520       -1.97860        2.71500
C          2.95260       -3.29030        2.09200
C          1.60230       -3.08650        1.38390
O          0.84150       -2.10060        2.04340
Cl         5.22740       -2.00680        2.92960
H          3.00080       -1.88950        3.72570
H          3.65560       -3.72260        1.34750
H          1.05100       -4.04900        1.36350
H          1.73960       -2.79860        0.31800
C         -0.69730        0.21910        2.83600
H          1.23290        1.15850        2.79030
H          1.10930       -0.22690        3.94330
H         -0.99800        0.59830        1.83610
H         -1.07940        0.91550        3.61190
H         -1.15820       -0.77750        3.00290
