20
TSA8_9_Cl_CH2F_CCl3
C          3.20490        0.71660       -1.36490
C          1.75310        0.30220       -1.46850
Cl         3.70260        0.58140        0.34970
H          3.79860       -0.02530       -1.93840
C          1.36490       -0.89990       -2.27870
C          3.44230        2.13030       -1.98630
C          2.72140        3.20290       -1.18870
C          1.73740        3.93930       -1.71390
O          0.88700        0.93630       -0.88370
C          4.94340        2.51170       -2.17180
H          3.01940        2.08820       -3.01700
H          3.01210        3.38400       -0.15780
H          1.41330        3.79530       -2.73970
H          1.24760        4.69730       -1.11170
F          1.74040       -0.71610       -3.59660
H          0.26660       -1.06290       -2.23700
H          1.87350       -1.79990       -1.87400
Cl         5.06800        4.06800       -3.04180
Cl         5.84190        2.69490       -0.63740
Cl         5.79450        1.30270       -3.17420
