20
TSA8_9_Cl_CH2F_CCl3
C          3.15470        0.91200       -1.39610
C          1.64040        0.61850       -1.66010
Cl         3.36300        1.26100        0.34820
H          3.75360       -0.00310       -1.59000
C          1.44400       -0.59850       -2.56620
C          3.60220        2.07990       -2.31240
C          2.72740        3.32390       -2.03460
C          1.30540        2.92620       -1.60540
O          0.92610        1.71920       -2.22650
C          5.12190        2.40890       -2.33270
H          3.35360        1.74670       -3.34420
H          3.13360        3.99800       -1.25080
H          0.59970        3.73820       -1.87580
H          1.23210        2.81940       -0.49890
F          1.98290       -0.37090       -3.81980
H          0.35880       -0.80730       -2.67190
H          1.92550       -1.49130       -2.11460
Cl         5.45220        3.64940       -3.57450
Cl         5.74560        3.03230       -0.77890
Cl         6.07200        0.96350       -2.77330
