26
TSA8_9_CBr3_Et_CF3
C          2.76360       -1.23970       -0.46940
C          1.32380       -1.72580       -0.32460
C          2.78710        0.30450       -0.76370
H          3.23730       -1.34170        0.53090
C          0.80950       -2.27010        0.98630
C          3.52940       -2.25240       -1.41000
C          2.96030       -2.34820       -2.81300
C          2.36250       -3.45730       -3.26200
O          0.55890       -1.66800       -1.27670
C          5.05680       -2.07210       -1.50580
H          3.39440       -3.23940       -0.91000
H          3.04800       -1.50740       -3.48880
H          2.25260       -4.33360       -2.63120
H          1.97510       -3.49050       -4.27500
Br         1.71990        1.24310        0.56920
Br         4.54270        1.10780       -0.56320
Br         2.06370        0.83010       -2.48960
C          1.54730       -3.54140        1.39990
H         -0.27110       -2.51460        0.88940
H          0.92100       -1.49880        1.77730
H          1.42500       -4.32480        0.62170
H          1.12620       -3.91950        2.35490
H          2.62900       -3.34550        1.55200
F          5.60960       -1.95420       -0.24290
F          5.60770       -3.18660       -2.11530
F          5.39280       -0.97220       -2.27140
