26
TSA8_9_CBr3_Et_CF3
C          1.68180       -0.11150        0.07300
C          1.35160       -1.36640       -0.31500
C          2.00420        1.08610       -0.80820
H          1.75100        0.09400        1.13790
C          1.03260       -2.40260        0.76500
C          4.22680       -3.38420       -1.74410
C          3.39110       -2.46040       -2.23660
C          1.90180       -2.66660       -2.32650
O          1.27050       -1.64770       -1.64340
C          5.69940       -3.10690       -1.64000
H          3.84680       -4.34100       -1.40430
H          3.78990       -1.50840       -2.57610
H          1.56360       -3.65970       -1.98160
H          1.61440       -2.59240       -3.39560
Br         0.87140        2.55590       -0.25850
Br         3.84330        1.59050       -0.48090
Br         1.78760        0.91350       -2.73710
C          1.99490       -3.58310        0.86750
H         -0.00240       -2.77790        0.61260
H          1.05290       -1.91610        1.76550
H          1.94180       -4.25050       -0.00510
H          1.71070       -4.20340        1.74390
H          3.03510       -3.22350        1.01220
F          5.91400       -2.01590       -0.81810
F          6.34290       -4.20800       -1.10380
F          6.22050       -2.84540       -2.89530
