26
TSA8_9_CBr3_Et_CF3
C          2.91670       -1.12580       -0.48470
C          1.44700       -1.61950       -0.50330
C          2.95510        0.38060       -0.92860
H          3.25830       -1.10010        0.57360
C          0.87810       -2.39810        0.70210
C          3.77560       -2.20650       -1.23570
C          3.15630       -2.57410       -2.58790
C          1.69290       -2.97980       -2.39370
O          0.93090       -1.95600       -1.78300
C          5.28040       -1.93350       -1.38810
H          3.71320       -3.12780       -0.62090
H          3.24030       -1.74820       -3.31680
H          1.61340       -3.92640       -1.83040
H          1.26150       -3.18820       -3.39470
Br         1.72570        1.40530        0.18320
Br         4.66790        1.23660       -0.59780
Br         2.43110        0.74060       -2.76470
C          1.58400       -3.70480        1.06010
H         -0.20050       -2.59310        0.52270
H          0.95460       -1.73300        1.58860
H          1.51940       -4.45130        0.24910
H          1.09340       -4.14490        1.95370
H          2.64500       -3.51640        1.32160
F          5.83750       -1.62660       -0.15980
F          5.90220       -3.07120       -1.87350
F          5.51770       -0.90940       -2.28550
