22
TSA8_9_CF3_CF3_NO2
C          2.72910       -0.62390        1.20790
C          1.29710       -0.31750        1.61330
C          2.84320       -0.56480       -0.33920
H          3.36710        0.19450        1.61200
C          0.98570        0.91970        2.41330
C          3.20610       -1.94130        1.90970
C          2.53880       -3.19090        1.36920
C          1.74640       -3.96020        2.12070
O          0.39120       -1.07340        1.29240
N          4.65040       -2.10580        1.85880
H          2.93570       -1.82000        2.98460
H          2.71800       -3.48510        0.34040
H          1.53940       -3.71480        3.15720
H          1.29630       -4.85030        1.69250
F          4.14720       -0.71880       -0.76080
F          2.05640       -1.52970       -0.94220
F          2.41090        0.67480       -0.77910
F         -0.37030        1.00200        2.67810
F          1.67460        0.88250        3.61150
F          1.37130        2.04110        1.70200
O          5.20980       -2.33950        0.83080
O          5.34560       -2.08320        2.97480
