22
TSA8_9_CF3_CF3_NO2
C          1.85880       -0.04680        0.10580
C          1.46690       -0.37280        1.37340
C          1.85190       -0.84710       -1.17420
H          2.20860        0.96550       -0.06790
C          1.45930        0.69900        2.44630
C          3.62810       -2.48830        3.05530
C          3.12100       -2.83180        1.86080
C          1.63750       -2.85200        1.60940
O          1.06390       -1.60450        1.81570
N          5.02890       -2.46460        3.30710
H          2.94970       -2.21880        3.86170
H          3.78030       -3.11110        1.04420
H          1.16300       -3.57040        2.31080
H          1.43780       -3.25960        0.61470
F          3.15290       -1.10070       -1.56500
F          1.14450       -2.01900       -1.11040
F          1.24350       -0.07790       -2.14900
F          0.17300        0.83020        2.93650
F          2.29160        0.31740        3.48080
F          1.87710        1.93710        1.98650
O          5.81330       -2.75030        2.45340
O          5.46650       -2.11740        4.49650
