22
TSA8_9_F_Et_NO2
C          1.97710        0.10190       -0.19750
C          1.53990        1.23910       -0.76780
F          2.08520       -0.01920        1.15180
H          2.22830       -0.76140       -0.80580
C          1.39120        1.33260       -2.26610
C          2.67940        4.74430       -0.82110
C          3.09060        3.76860        0.00830
C          2.09520        2.98630        0.82200
O          1.21280        2.32500       -0.01480
N          3.58240        5.51330       -1.60710
H          1.61620        4.96130       -0.89500
H          4.14670        3.53460        0.10820
H          1.52710        3.69880        1.45740
H          2.62040        2.27860        1.49400
C         -0.05170        1.61590       -2.66580
H          1.71450        0.39130       -2.76330
H          2.04060        2.15540       -2.63300
H         -0.70880        0.78320       -2.33950
H         -0.11770        1.70490       -3.77060
H         -0.40330        2.56690       -2.21150
O          4.75990        5.31340       -1.56770
O          3.11500        6.45990       -2.38940
