22
TSA8_9_F_Et_NO2
C          2.99060        2.08670       -1.16100
C          1.48130        1.70410       -1.01450
F          3.71990        1.48970       -0.14470
H          3.40060        1.70710       -2.12220
C          0.80430        1.63690       -2.39350
C          3.11340        3.61410       -1.06110
C          2.57840        4.09430        0.30430
C          1.51850        3.12620        0.85960
O          0.73090        2.60020       -0.18540
N          4.47250        4.06850       -1.28160
H          2.45760        4.04410       -1.84930
H          3.36760        4.18570        1.08180
H          0.87830        3.66230        1.58970
H          1.99170        2.29090        1.42460
C         -0.64570        1.17220       -2.28540
H          1.35130        0.91080       -3.03270
H          0.83060        2.63330       -2.88500
H         -0.69390        0.16910       -1.81120
H         -1.09130        1.10990       -3.30080
H         -1.24400        1.89010       -1.68530
O          5.35590        3.72290       -0.55570
O          4.74220        4.86460       -2.29420
