21
TSA8_9_Me_I_OMe
C          2.87130        1.18440       -0.64910
C          1.40870        1.03790       -1.01110
C          3.10860        0.42850        0.67460
H          3.45490        0.68410       -1.45170
I          0.85340        0.02640       -2.77970
C          3.26900        2.70010       -0.65390
C          2.66230        3.50150        0.48730
C          1.77010        4.47530        0.27710
O          0.53410        1.49440       -0.29090
O          4.66020        2.96230       -0.81470
H          2.83880        3.09010       -1.60470
H          2.94880        3.28660        1.51110
H          1.44200        4.73470       -0.72460
H          1.35810        5.02280        1.11880
H          2.52620        0.88370        1.50350
H          4.16810        0.38340        0.97240
H          2.77670       -0.62620        0.56210
C          5.48790        2.46410        0.21060
H          6.39830        3.09600        0.25240
H          5.82230        1.43660       -0.04110
H          5.03690        2.52540        1.22160
