21
TSA8_9_Me_I_OMe
C          1.67310        0.04490       -0.12450
C          1.35900        0.83860       -1.17950
C          2.04490        0.39910        1.28980
H          1.64570       -1.02620       -0.30490
I          0.85240       -0.15050       -2.97810
C          4.02580        4.19150       -0.66650
C          3.26280        3.15050       -0.28070
C          1.75770        3.18790       -0.38960
O          1.31310        2.20280       -1.24680
O          5.38580        4.19200       -0.59590
H          3.54780        5.08370       -1.05860
H          3.72800        2.25460        0.11050
H          1.43800        4.16420       -0.81250
H          1.25130        3.11840        0.59050
H          2.06860        1.46350        1.53610
H          3.05050       -0.01620        1.50800
H          1.31310       -0.07640        1.97560
C          6.17490        3.15080       -0.15040
H          7.24080        3.44990       -0.21620
H          6.01930        2.25310       -0.78630
H          5.93750        2.91410        0.90870
