22
TSA8_9_NO2_CCl3_CF3
C          2.57900       -2.16130       -0.84970
C          1.03740       -1.85990       -0.71160
N          3.31170       -0.93010       -1.12610
H          2.96470       -2.56870        0.11000
C          0.40960       -2.34950        0.60720
C          2.75910       -3.23610       -1.95960
C          2.13720       -2.75150       -3.28310
C          0.87730       -1.91380       -3.02150
O          0.26570       -2.32590       -1.81920
C          4.18140       -3.79130       -2.16740
H          2.14880       -4.10230       -1.62000
H          2.82610       -2.14660       -3.91170
H          0.17510       -2.02540       -3.87300
H          1.12250       -0.82790       -2.97490
O          4.50480       -0.93300       -1.13110
O          2.68130        0.22210       -1.22650
Cl         0.49280       -4.12660        0.74930
Cl         1.22690       -1.61050        2.01080
Cl        -1.30290       -1.85940        0.67020
F          4.69680       -4.23120       -0.96120
F          4.12840       -4.86550       -3.03840
F          5.03040       -2.84460       -2.70830
