23
TSA8_9_CH2F_CBr3_CHF2
C          2.64210       -1.60170        0.18780
C          1.50310       -1.07230        1.04860
C          2.75980       -0.72040       -1.07380
H          3.58270       -1.47400        0.76600
C          1.76660       -0.52460        2.43600
C          2.45240       -3.13640       -0.06760
C          1.21760       -3.43880       -0.89310
C          0.19180       -4.14330       -0.40560
O          0.36180       -1.08350        0.60870
C          3.66800       -3.83480       -0.70820
H          2.34770       -3.60110        0.93990
H          1.16130       -3.07900       -1.91620
H          0.20340       -4.52550        0.61020
H         -0.67370       -4.34110       -1.02960
F          3.90040       -1.00810       -1.79550
H          2.83670        0.34510       -0.76880
H          1.86640       -0.82110       -1.72430
Br         2.97450        0.98970        2.34130
Br         0.13420        0.07630        3.30590
Br         2.56140       -1.89240        3.55760
F          3.86190       -3.45580       -2.02300
F          4.81480       -3.58200        0.02350
H          3.49300       -4.93250       -0.70580
