18
TSA8_9_OH_Cl_Me
C          3.16750        1.25360       -0.67240
C          1.69570        1.03570       -0.93030
O          3.60430        0.39400        0.34980
H          3.72420        1.02570       -1.61190
Cl         1.14810        0.51460       -2.51520
C          3.47980        2.72600       -0.30640
C          2.82730        3.12790        0.99920
C          1.93080        4.11650        1.06970
O          0.87430        1.20050       -0.04170
C          4.99320        2.94890       -0.19590
H          3.11080        3.37140       -1.13620
H          3.09620        2.59860        1.90940
H          1.63400        4.67120        0.18520
H          1.48550        4.37600        2.02460
H          3.65290       -0.51710       -0.04230
H          5.49020        2.69000       -1.15510
H          5.43020        2.32490        0.61310
H          5.20530        4.01720        0.02510
