15
TSA8_9_CN_Cl_H
C          2.02120       -1.62800       -0.18870
C          2.54480       -1.39700        1.20380
C          2.52390       -0.67720       -1.19540
H          0.95090       -1.38400       -0.05190
Cl         2.09220        0.10780        2.00470
C          2.16060       -3.07510       -0.72750
C          0.90520       -3.34330       -1.51200
C         -0.24390       -3.47860       -0.83290
O          3.07350       -2.27950        1.84630
H          3.08470       -3.19700       -1.34150
H          2.20630       -3.84790        0.07180
H          0.91650       -3.37170       -2.59630
H         -0.23470       -3.44830        0.25820
H         -1.19130       -3.60520       -1.33690
N          2.91830        0.07480       -1.98500
