23
TSA8_9_CHF2_CHF2_CBr3
C          1.66470       -0.08280       -0.02000
C          1.43820       -1.41750       -0.14550
C          1.82170        0.95050       -1.10980
H          1.71590        0.33130        0.98350
C          1.21550       -2.24450        1.09280
C          3.89270       -3.70110       -3.37480
C          2.92920       -3.45140       -2.47540
C          2.37090       -2.07010       -2.30640
O          1.39430       -2.09150       -1.32740
C          4.47660       -5.07810       -3.55240
H          4.26550       -2.88610       -3.98990
H          2.54760       -4.25690       -1.85250
H          1.92260       -1.74290       -3.26810
H          3.20690       -1.39030       -2.02680
F          3.09480        1.48560       -1.06050
F          1.56220        0.48210       -2.37880
H          1.08750        1.76000       -0.91640
F         -0.02990       -2.84080        1.02610
F          2.18430       -3.22820        1.16460
H          1.26320       -1.63680        2.02170
Br         5.83590       -5.04600       -4.93340
Br         5.30160       -5.68270       -1.90350
Br         3.10250       -6.34150       -4.08060
