18
TSA8_9_OH_Cl_CCl3
C          3.10050        0.93280       -1.08560
C          1.62970        0.67750       -1.31610
O          3.44420        0.54180        0.21900
H          3.66550        0.31560       -1.81940
Cl         1.11680       -0.42470       -2.58400
C          3.47470        2.42560       -1.33250
C          2.78060        3.32340       -0.32300
C          1.89440        4.25410       -0.69100
O          0.78410        1.21430       -0.61770
C          5.01010        2.69140       -1.31880
H          3.12560        2.67990       -2.35990
H          3.00840        3.21020        0.73290
H          1.63520        4.40310       -1.73460
H          1.41980        4.87650        0.06040
H          3.46860       -0.45070        0.22590
Cl         5.33860        4.40410       -1.71030
Cl         5.77120        2.34360        0.26210
Cl         5.84350        1.71760       -2.56320
