20
TSA8_9_OH_Me_NO2
C          2.89410       -1.37720        0.44440
C          1.40090       -1.33500        0.68610
O          3.28420       -0.26590       -0.32190
H          3.41690       -1.34800        1.42960
C          0.87040       -1.25710        2.08610
C          3.32920       -2.69150       -0.25060
C          2.77890       -2.79500       -1.65800
C          1.96030       -3.78290       -2.03290
O          0.62140       -1.35200       -0.25500
N          4.77750       -2.78440       -0.29500
H          2.94760       -3.53700        0.36790
H          3.06050       -2.04380       -2.39060
H          1.65350       -4.55510       -1.33530
H          1.59110       -3.81980       -3.05260
H          3.21850        0.52830        0.27070
H          1.21020       -2.14250        2.66320
H         -0.24010       -1.23260        2.08720
H          1.24920       -0.33540        2.57580
O          5.42330       -1.97960       -0.89780
O          5.39040       -3.76770        0.32810
