20
TSA8_9_OH_Me_NO2
C          2.95670       -1.31340        0.21990
C          1.40810       -1.49660        0.37250
O          3.23940       -0.56500       -0.93490
H          3.38660       -0.77890        1.09880
C          1.00470       -1.51490        1.84640
C          3.58910       -2.71020        0.09700
C          3.01740       -3.44190       -1.13510
C          1.57900       -2.98270       -1.43320
O          0.89480       -2.68630       -0.23600
N          5.03830       -2.65930        0.05360
H          3.27830       -3.28370        0.99900
H          3.60670       -3.27380       -2.06270
H          1.04760       -3.77970       -1.99330
H          1.57070       -2.08730       -2.09670
H          2.90010        0.35240       -0.76660
H          1.47250       -2.37300        2.37330
H         -0.09910       -1.60050        1.92800
H          1.31600       -0.56880        2.33750
O          5.60290       -2.08960       -0.83210
O          5.74340       -3.24540        0.99690
