21
TSA8_9_OMe_CBr3_H
C          1.20630        1.37220       -0.26810
C          1.70020        1.04410       -1.66080
O          2.34290        1.40200        0.58180
H          0.48170        0.57590        0.02980
C          1.33090       -0.25820       -2.34740
C          0.49100        2.74340       -0.18230
C         -0.79450        2.84840       -0.96550
C         -0.84260        2.85300       -2.30060
O          2.45910        1.82740       -2.21360
H          0.22500        2.90670        0.88330
H          1.17860        3.56380       -0.48310
H         -1.72440        2.95810       -0.41500
H          0.05380        2.77390       -2.90330
H         -1.79940        2.94660       -2.80430
C          2.05560        0.81680        1.83360
H          1.26430        1.38250        2.37170
H          2.97150        0.86040        2.45830
H          1.78720       -0.25700        1.72640
Br         1.97910       -1.75120       -1.29460
Br        -0.58690       -0.44980       -2.55550
Br         2.13100       -0.39590       -4.11520
