23
TSA8_9_Me_CHF2_CHF2
C          2.75210        1.36170       -0.54980
C          1.52090        0.80260       -1.23730
C          2.80570        0.83600        0.89570
H          3.64260        0.95650       -1.07970
C          1.67000       -0.10800       -2.42450
C          2.79800        2.91880       -0.68280
C          1.66010        3.59760        0.05300
C          0.73140        4.31760       -0.58400
O          0.40380        1.08080       -0.82460
C          4.13440        3.53610       -0.22480
H          2.72230        3.14080       -1.77240
H          1.59450        3.50540        1.13290
H          0.75580        4.44110       -1.66230
H         -0.06620        4.79110       -0.02100
H          1.93770        1.19220        1.48880
H          3.74250        1.13630        1.40240
H          2.78500       -0.27500        0.88880
F          0.43080       -0.51430       -2.89000
F          2.33680        0.55450       -3.43810
H          2.25250       -1.00530       -2.12960
F          4.33360        3.39620        1.13660
F          5.19240        2.96070       -0.90590
H          4.12880        4.62380       -0.45420
