23
TSA8_9_Me_CHF2_CHF2
C          1.87470        0.05830       -0.08350
C          1.50880        0.64610       -1.26140
C          1.87510        0.59680        1.32270
H          2.20910       -0.97460       -0.12400
C          1.58480       -0.18250       -2.51680
C          3.10280        4.57680       -0.87420
C          2.57290        3.42900       -0.42420
C          1.13250        3.06320       -0.67430
O          1.06880        1.92630       -1.45480
C          4.54660        4.90630       -0.64540
H          2.48930        5.28480       -1.42460
H          3.20690        2.73520        0.11910
H          0.62930        3.87810       -1.23730
H          0.54150        2.95280        0.25180
H          1.52920        1.62390        1.45630
H          2.90570        0.53860        1.72870
H          1.21750       -0.04700        1.94270
F          0.32450       -0.27830       -3.07650
F          2.43440        0.43400       -3.41770
H          1.96190       -1.21130       -2.33290
F          4.81290        4.95750        0.71130
F          5.34790        3.94750       -1.23580
H          4.77840        5.89540       -1.09530
