23
TSA8_9_Me_CHF2_CHF2
C          2.70330        1.48920       -0.54580
C          1.35050        1.07940       -1.22370
C          2.63860        1.15310        0.95340
H          3.53630        0.87880       -0.96180
C          1.56100        0.10540       -2.38350
C          2.97580        2.98410       -0.85330
C          1.78700        3.85720       -0.40770
C          0.45260        3.12880       -0.63760
O          0.58400        2.19160       -1.68330
C          4.31450        3.54080       -0.34080
H          3.01710        3.05180       -1.96410
H          1.82880        4.17380        0.65730
H         -0.33420        3.87240       -0.88040
H          0.10350        2.61720        0.28890
H          1.85100        1.72990        1.47730
H          3.61150        1.34970        1.44570
H          2.42200        0.07090        1.08210
F          0.33540       -0.28960       -2.88720
F          2.29390        0.70840       -3.39050
H          2.10230       -0.79550       -2.02520
F          4.35940        3.57910        1.04070
F          5.36330        2.77310       -0.81370
H          4.44410        4.57870       -0.71570
