20
TSA8_9_CHF2_CF3_I
C          1.74010       -0.36980       -1.72230
C          1.11060       -1.00910       -0.48310
C          1.60050        1.17760       -1.67510
H          2.83170       -0.57730       -1.67450
C          1.31490       -2.46180       -0.12970
C          1.18120       -1.02910       -3.02410
C         -0.30670       -0.83490       -3.19940
C         -1.15770       -1.86600       -3.19520
O          0.42850       -0.33320        0.27490
I          2.17790       -0.39130       -4.81610
H          1.40100       -2.11430       -2.98650
H         -0.70580        0.16270       -3.34280
H         -0.80890       -2.88490       -3.05910
H         -2.22070       -1.69200       -3.32770
F          2.27490        1.78510       -2.71590
F          0.27870        1.58410       -1.69030
H          2.05860        1.54840       -0.73290
F          0.09500       -3.11200       -0.13560
F          2.17050       -3.09580       -1.01090
F          1.86310       -2.54530        1.13680
