20
TSA8_9_CHF2_CF3_I
C          1.91810       -0.08830       -0.05540
C          1.28500       -1.08570       -0.71600
C          2.08400        1.32780       -0.55520
H          2.35110       -0.27960        0.92120
C          1.18240       -2.47260       -0.09390
C         -0.11160       -1.68080       -5.13160
C         -0.39360       -1.05170       -3.98570
C         -0.09150       -1.66980       -2.65150
O          0.74860       -0.83380       -1.94400
I         -0.55180       -0.78190       -6.98920
H          0.34570       -2.66570       -5.13250
H         -0.85480       -0.06900       -4.01440
H          0.38000       -2.66640       -2.78670
H         -1.04560       -1.79100       -2.09680
F          3.43110        1.62700       -0.62790
F          1.51230        1.54370       -1.79640
H          1.60530        2.01560        0.17150
F         -0.14570       -2.82750        0.04850
F          1.81180       -3.39100       -0.91250
F          1.77690       -2.53290        1.15670
