21
TSA8_9_H_OH_Et
C          3.58520       -0.06740        1.47030
C          2.17870        0.46900        1.41070
H          3.87790       -0.41520        0.45700
H          4.25730        0.77040        1.75810
O          1.94340        1.76060        1.72520
C          3.74440       -1.20100        2.50940
C          2.91590       -2.41250        2.13260
C          1.94030       -2.87650        2.91970
O          1.25480       -0.25180        1.06400
C          5.22830       -1.59530        2.70720
H          3.39990       -0.80140        3.49080
H          3.11160       -2.92220        1.19420
H          1.70530       -2.39970        3.86610
H          1.36670       -3.74590        2.61520
H          1.05120        2.13410        1.69150
C          5.92530       -2.15930        1.46410
H          5.28900       -2.35610        3.51620
H          5.79400       -0.70000        3.04660
H          5.43100       -3.08890        1.11600
H          6.97750       -2.40660        1.71830
H          5.93920       -1.41610        0.64140
