21
TSA8_9_H_OH_Et
C          3.38880       -0.31630        1.23000
C          1.89820        0.11380        1.35360
H          3.47420       -1.10320        0.45040
H          4.00980        0.54900        0.91120
O          1.80160        1.45900        1.74020
C          3.83880       -0.90390        2.57410
C          2.95090       -2.11960        2.92960
C          1.56550       -2.02130        2.26250
O          1.11000       -0.68630        2.24000
C          5.35260       -1.20680        2.65210
H          3.63790       -0.12880        3.34560
H          3.37350       -3.09980        2.63040
H          0.84670       -2.66100        2.81520
H          1.59800       -2.41910        1.22160
H          2.11020        1.51610        2.68160
C          5.87110       -2.19590        1.60330
H          5.58940       -1.59730        3.66550
H          5.90720       -0.25220        2.51850
H          5.39130       -3.18930        1.70220
H          6.96450       -2.33110        1.74210
H          5.70380       -1.80690        0.57790
