20
TSA8_9_CCl3_H_CCl3
C          1.47090        2.73720        0.19780
C          1.06420        1.71280       -0.88700
C          1.85000        1.98370        1.52200
H          2.42190        3.19850       -0.14690
H          1.10450        2.13870       -1.91640
C          0.35960        3.85660        0.17450
C         -1.04870        3.23900        0.27230
C         -1.20350        2.13010       -0.77360
O         -0.20290        1.14060       -0.61720
C          0.49760        5.09340        1.10660
H          0.42870        4.27920       -0.85510
H         -1.24900        2.83860        1.28350
H         -2.19940        1.65790       -0.64340
H         -1.18740        2.55220       -1.80430
Cl         2.69830        3.03040        2.68790
Cl         0.48740        1.18540        2.35360
Cl         3.04160        0.70050        1.15180
Cl         2.11660        5.83160        0.96420
Cl        -0.67490        6.34230        0.59580
Cl         0.13190        4.75490        2.82330
