21
TSA8_9_OMe_H_CBr3
C          0.33880        0.18280        2.03740
C          0.53270        0.93760        0.69750
O          1.47600       -0.60460        2.34490
H         -0.57370       -0.44310        1.90740
H         -0.44080        1.12310        0.18580
C          0.10390        1.19330        3.20260
C         -0.60090        2.42870        2.63260
C          0.37000        3.08580        1.61720
O          1.19420        2.16780        0.89370
C         -0.63540        0.59400        4.42800
H          1.09600        1.55390        3.56170
H         -1.54140        2.10650        2.13340
H          1.06200        3.71360        2.21750
H         -0.18080        3.76000        0.92820
C          1.50420       -1.77080        1.54850
H          2.32400       -2.42210        1.91500
H          1.72640       -1.52260        0.48810
H          0.56730       -2.36410        1.64150
Br        -0.80070        1.93770        5.82270
Br        -2.42790       -0.02820        3.99620
Br         0.34850       -0.89120        5.20220
