18
TSA8_9_Br_CF3_OH
C          1.77390       -0.13900       -0.08390
C          1.49920       -1.32330       -0.68440
Br         2.17710        1.51240       -0.97990
H          1.72890       -0.05330        0.99630
C          1.10860       -2.53030        0.13550
C          3.91090       -1.89990       -4.70760
C          3.00110       -2.12440       -3.75010
C          2.43970       -0.99690       -2.93550
O          1.52430       -1.50690       -2.03470
O          4.41980       -2.91470       -5.44140
H          4.25390       -0.88870       -4.90590
H          2.66350       -3.13960       -3.55660
H          1.92750       -0.27780       -3.60990
H          3.28660       -0.49990       -2.41840
F         -0.15060       -2.95110       -0.24940
F          2.01260       -3.54790       -0.10560
F          1.09080       -2.26870        1.49540
H          4.15270       -3.83600       -5.30840
