19
TSA8_9_CCl3_Cl_NO2
C          1.56170        0.26050        2.02630
C          0.85840        0.96760        0.87980
C          1.74170       -1.26290        1.69900
H          2.59520        0.67190        2.06420
Cl         1.70440        2.19540       -0.04990
C          0.88160        0.69920        3.37780
C         -0.60630        0.41000        3.46720
C         -1.51400        1.39030        3.53760
O         -0.29350        0.69120        0.58170
N          1.54390        0.16940        4.55780
H          1.01380        1.80700        3.39730
H         -0.95870       -0.61360        3.48840
H         -1.21870        2.43510        3.52690
H         -2.56940        1.14850        3.60620
Cl         0.21630       -2.18780        1.68130
Cl         2.48230       -1.45210        0.08040
Cl         2.88960       -2.06770        2.80260
O          1.38100       -0.96590        4.88920
O          2.17010        0.99030        5.37350
