19
TSA8_9_OMe_CN_F
C          1.29930       -1.25720       -0.57010
C          1.84340       -1.51770        0.81370
O          2.25510       -0.51840       -1.30220
H          0.35740       -0.64950       -0.44520
C          1.19250       -1.02160        1.99140
C          0.97120       -2.59100       -1.29640
C         -0.48600       -2.95590       -1.18320
C         -1.11880       -3.14800       -0.02200
O          2.92210       -2.08950        0.93760
F          1.25670       -2.47810       -2.64970
H          1.61900       -3.41210       -0.91000
H         -1.05830       -3.05500       -2.10290
H         -0.60320       -3.04940        0.92600
H         -2.17340       -3.39140       -0.02850
C          1.64310        0.36260       -2.22320
H          2.22070        0.37160       -3.16760
H          1.60790        1.38760       -1.80410
H          0.60870        0.06130       -2.52010
N          0.66960       -0.61520        2.94270
