19
TSA8_9_OMe_CN_F
C          1.63200       -0.02200        0.06000
C          1.58080       -1.05690        0.91550
O          1.73770       -0.22370       -1.27810
H          1.49440        0.99030        0.43820
C          1.23490       -0.80480        2.29720
C          0.47390       -4.67350       -1.77840
C          0.66110       -3.40060       -1.42800
C          0.42690       -2.93440       -0.02600
O          1.58230       -2.33730        0.46310
F          0.69510       -5.06200       -3.05970
H          0.13510       -5.40450       -1.05030
H          0.98420       -2.67960       -2.17310
H          0.13370       -3.77080        0.64580
H         -0.43110       -2.23430       -0.04340
C          1.15300        0.62900       -2.19910
H          1.50270        0.38130       -3.22190
H          1.37510        1.69240       -1.96910
H          0.05130        0.48840       -2.20170
N          0.95620       -0.62930        3.40730
