14
TSA8_9_H_F_I
C          1.11770       -0.57260       -1.47400
C          1.77880       -1.24680       -0.30510
H          1.90650       -0.10660       -2.10290
H          0.44660        0.23260       -1.10310
F          1.48060       -0.85610        0.96130
C          0.30940       -1.56210       -2.32450
C         -0.81470       -2.17230       -1.52670
C         -0.90570       -3.49020       -1.32620
O          2.59060       -2.14070       -0.48530
I         -0.53040       -0.53980       -4.00520
H          0.99290       -2.34650       -2.71950
H         -1.57270       -1.52070       -1.10140
H         -0.16720       -4.17360       -1.73390
H         -1.72880       -3.89410       -0.74590
