14
TSA8_9_H_F_I
C          2.16910       -0.13640        0.10160
C          1.24610       -1.08980       -0.01690
H          2.71820        0.21090       -0.76820
H          2.38020        0.30410        1.07070
F          0.57260       -1.50570        1.09110
C         -1.09910       -2.65980       -3.69710
C         -0.92560       -2.05280       -2.51870
C          0.02550       -2.58160       -1.48450
O          0.99440       -1.63050       -1.23470
I         -2.44750       -1.87180       -5.11670
H         -0.55370       -3.56440       -3.94810
H         -1.48570       -1.15000       -2.29790
H          0.52450       -3.50920       -1.83950
H         -0.55410       -2.83480       -0.57060
