23
TSA8_9_CCl3_CH2F_CCl3
C          1.31070       -0.71930        1.92080
C          2.62490       -0.28890        2.58210
C          1.47110       -1.57260        0.59810
H          0.92410        0.23160        1.48690
C          3.96020       -0.97210        2.41310
C          0.23320       -1.10460        3.03400
C         -1.11010       -1.42950        2.41340
C         -2.17500       -0.63070        2.53770
O          2.59450        0.68660        3.32060
C          0.55610       -2.18990        4.12730
H          0.11850       -0.16500        3.62280
H         -1.22360       -2.35680        1.86170
H         -2.11900        0.30280        3.08730
H         -3.11750       -0.91600        2.08170
Cl         1.98110       -3.26530        0.80010
Cl        -0.02280       -1.59010       -0.38380
Cl         2.65680       -0.78790       -0.49130
F          4.87170       -0.08280        1.87530
H          3.92350       -1.86250        1.76900
H          4.33060       -1.30480        3.40470
Cl        -0.77130       -2.22520        5.32900
Cl         0.69500       -3.85370        3.51490
Cl         2.01520       -1.83220        5.08900
