24
TSA8_9_OMe_CF3_CHF2
C          2.70470        1.26640       -0.21390
C          1.33020        1.11500       -0.96410
O          2.50100        1.31910        1.18910
H          3.39700        0.43030       -0.47190
C          1.44210        0.22690       -2.20960
C          3.34740        2.59150       -0.67190
C          2.41180        3.77250       -0.33290
C          0.93690        3.33750       -0.35560
O          0.73200        2.35710       -1.34670
C          4.76320        2.82160       -0.11980
H          3.43350        2.54710       -1.77920
H          2.60150        4.21850        0.66810
H          0.29460        4.22080       -0.54840
H          0.61870        2.94000        0.63610
C          2.20820        0.03390        1.69300
H          2.08440        0.11200        2.79260
H          3.04450       -0.67660        1.51190
H          1.24880       -0.35280        1.28570
F          0.19100        0.07850       -2.77880
F          2.29400        0.79160       -3.14140
F          1.91480       -1.02470       -1.85820
F          4.75400        2.89190        1.26220
F          5.60130        1.79390       -0.51460
H          5.16750        3.77490       -0.52140
