26
TSA8_9_Et_CF3_Me
C          1.90780        0.02920       -0.23170
C          1.48020        0.60930       -1.39500
C          1.95630        0.56990        1.17880
H          2.25270       -0.99870       -0.28020
C          1.51360       -0.19320       -2.67920
C          2.83300        4.67500       -1.13200
C          2.42880        3.49800       -0.63280
C          1.00960        3.01680       -0.78880
O          0.98560        1.87490       -1.56230
C          4.25480        5.12310       -0.99650
H          2.13280        5.32020       -1.65620
H          3.14580        2.86630       -0.12060
H          0.41440        3.78580       -1.32570
H          0.48190        2.87360        0.17020
C          3.36990        0.45700        1.74410
H          1.28260       -0.05330        1.80530
H          1.63470        1.60600        1.29150
H          3.71060       -0.60080        1.72760
H          3.37810        0.81060        2.79720
H          4.07860        1.07420        1.15430
F          0.22860       -0.29770       -3.17710
F          2.29730        0.47410       -3.60250
F          2.02510       -1.47080       -2.51600
H          4.92800        4.39170       -1.49260
H          4.52780        5.20740        0.07610
H          4.38360        6.11300       -1.48210
