17
TSA8_9_F_CH2F_H
C          2.01850        1.66100        1.11730
C          0.86090        2.33430        0.42890
F          1.59720        0.42720        1.58050
H          2.84230        1.50250        0.38670
C          0.95160        2.69460       -1.02590
C          2.54310        2.53090        2.27250
C          3.75310        1.93380        2.94470
C          3.70980        0.78010        3.61940
O         -0.15900        2.57990        1.05700
H          2.84000        3.51820        1.85520
H          1.74610        2.69770        3.02980
H          4.69540        2.47160        2.89210
H          2.78970        0.21430        3.71610
H          4.60790        0.39610        4.09200
F         -0.21860        3.29460       -1.45800
H          1.12720        1.77620       -1.62420
H          1.79640        3.39760       -1.18200
