18
TSA8_9_CN_CBr3_Cl
C          2.39640       -1.53620       -0.37900
C          1.17200       -1.53150        0.60780
C          2.21240       -0.48600       -1.40320
H          3.35990       -1.34740        0.13900
C          1.39930       -1.08030        2.06400
C          2.43870       -2.91650       -1.08210
C          1.06270       -3.22280       -1.69690
C         -0.04660       -2.99880       -0.65160
O          0.50650       -2.78280        0.62530
Cl         3.72440       -3.07310       -2.31300
H          2.64430       -3.69080       -0.30920
H          0.85740       -2.56860       -2.57480
H         -0.66940       -3.91290       -0.61200
H         -0.72330       -2.15580       -0.93110
N          2.03790        0.32260       -2.21410
Br         2.08170        0.72570        2.21310
Br        -0.31820       -1.11880        2.97480
Br         2.58900       -2.29340        3.00340
