23
TSA8_9_OMe_CF3_NH2
C          1.24040        1.35000        0.42520
C          1.75370        1.08900       -0.97130
O          2.28420        1.00900        1.32850
H          0.31630        0.73750        0.57950
C          1.07880        0.08400       -1.86670
C          0.84100        2.83080        0.66690
C         -0.31860        3.30090       -0.19910
C         -0.24560        3.43070       -1.52760
O          2.74540        1.68420       -1.36820
N          0.48290        2.99290        2.07910
H          1.72010        3.48380        0.46830
H         -1.25360        3.57630        0.28220
H          0.65980        3.20590       -2.07680
H         -1.10880        3.78460       -2.08230
C          1.90500       -0.06160        2.16610
H          1.12060        0.26180        2.88470
H          2.79100       -0.37780        2.75370
H          1.57820       -0.94710        1.57660
F         -0.23770        0.44900       -2.07790
F          1.72520        0.01170       -3.08830
F          1.11270       -1.16160       -1.26880
H         -0.36850        2.42760        2.30580
H          0.28140        4.00000        2.27950
