23
TSA8_9_I_CHF2_Et
C          2.98500        1.55310       -1.73490
C          1.74620        1.06800       -2.46130
I          2.74060        1.18510        0.36840
H          3.84700        0.92170       -2.03320
C          1.82880       -0.07560       -3.43530
C          3.35230        3.04520       -1.99190
C          2.25750        3.98180       -1.51710
C          2.45690        4.86210       -0.53050
O          0.65980        1.57550       -2.22620
C          3.65830        3.35910       -3.47420
H          4.27790        3.25700       -1.41030
H          1.28220        3.95480       -1.99130
H          1.65160        5.52020       -0.22080
H          3.41460        4.93490       -0.02460
F          0.57530       -0.38180       -3.93610
F          2.66030        0.25370       -4.48700
H          2.23190       -0.97040       -2.91610
C          4.89370        2.63070       -4.00800
H          3.86480        4.44880       -3.56800
H          2.77810        3.12170       -4.11040
H          5.78560        2.89350       -3.40060
H          5.07820        2.94190       -5.05790
H          4.76110        1.53230       -3.99800
