23
TSA8_9_I_CHF2_Et
C          1.69260        0.07680       -0.09860
C          1.43180        0.51060       -1.35470
I          2.11960        1.26750        1.60890
H          1.64520       -0.98620        0.11750
C          1.06280       -0.48260       -2.42160
C          3.90900        4.32880       -2.54270
C          2.96540        3.37900       -2.60670
C          2.39120        2.76950       -1.36380
O          1.45600        1.82030       -1.72520
C          4.49980        4.94190       -3.78380
H          4.26010        4.67490       -1.57400
H          2.60920        3.03480       -3.57450
H          1.89890        3.56000       -0.75740
H          3.22860        2.31640       -0.79320
F         -0.19450       -0.18380       -2.91230
F          1.98000       -0.40380       -3.45290
H          1.05290       -1.52580       -2.03920
C          5.23200        3.90490       -4.63600
H          5.22730        5.72660       -3.48350
H          3.69460        5.41910       -4.38250
H          6.04950        3.43510       -4.04900
H          5.67000        4.39960       -5.52740
H          4.53390        3.11430       -4.98370
