23
TSA8_9_I_CHF2_Et
C          3.18190        1.70590       -2.12430
C          1.67630        1.53830       -2.42460
I          3.68860        0.81550       -0.21610
H          3.80740        1.14100       -2.83830
C          1.27750        0.07980       -2.65680
C          3.53660        3.22080       -2.14520
C          2.29720        4.07800       -1.78580
C          1.35430        3.31920       -0.84660
O          0.85800        2.09680       -1.39570
C          4.07100        3.71670       -3.51270
H          4.33870        3.39940       -1.39730
H          1.69070        4.28230       -2.69760
H          0.48870        3.98120       -0.63550
H          1.86160        3.12030        0.11960
F         -0.06370        0.01870       -2.98830
F          2.01530       -0.45600       -3.69660
H          1.44390       -0.52510       -1.74140
C          5.41400        3.10170       -3.91760
H          4.23230        4.81590       -3.44540
H          3.32200        3.52330       -4.31190
H          6.17990        3.30570       -3.13980
H          5.75040        3.55910       -4.87200
H          5.34350        2.00950       -4.08290
