19
TSA8_9_Me_F_NH2
C          1.54240       -2.34530       -0.09260
C          1.18790       -1.36870        1.04360
C          1.30190       -1.65670       -1.44770
H          2.62600       -2.59010       -0.04040
F          1.64090       -1.81390        2.27740
C          0.72100       -3.64130        0.11720
C         -0.77180       -3.30890        0.25460
C         -0.94510       -2.25840        1.35950
O         -0.20300       -1.08150        1.07740
N          0.95700       -4.62360       -0.94220
H          1.05270       -4.09280        1.07990
H         -1.17860       -2.91450       -0.70050
H         -0.66660       -2.67650        2.35270
H         -2.02090       -1.99260        1.42170
H          1.59250       -2.32300       -2.28550
H          1.93210       -0.74430       -1.51630
H          0.24330       -1.35200       -1.57760
H          0.52970       -4.30220       -1.84050
H          0.49420       -5.52380       -0.67890
