14
TSA8_9_Br_Cl_I
C          1.86650       -0.04250        0.16710
C          1.42640       -0.41180        1.38410
Br         2.27000       -1.23550       -1.27810
H          1.96640        1.01490       -0.05470
Cl         1.01130        0.84800        2.53710
C          3.01410       -2.15390        4.07850
C          3.29580       -2.33820        2.78470
C          2.21820       -2.68740        1.79610
O          1.24450       -1.70210        1.77220
I          4.53820       -1.66200        5.45190
H          1.99620       -2.25250        4.44440
H          4.31940       -2.23660        2.43780
H          1.74800       -3.64470        2.10540
H          2.66550       -2.84660        0.80030
