14
TSA8_9_Br_Cl_I
C          2.54720       -0.36140        1.62080
C          1.07440       -0.76640        1.31250
Br         3.69530       -0.71890        0.08250
H          2.61230        0.73690        1.77770
Cl        -0.03250        0.37420        2.12480
C          3.00110       -1.11800        2.87280
C          2.89830       -2.63510        2.65140
C          1.78360       -2.98250        1.64800
O          0.70850       -2.07670        1.75490
I          4.95350       -0.56060        3.56150
H          2.29330       -0.84820        3.68680
H          3.83920       -3.08270        2.26510
H          1.43290       -4.01750        1.83980
H          2.16080       -2.98520        0.60190
