21
TSA8_9_NO2_OH_OMe
C          2.90980       -0.63680       -1.55510
C          1.52700       -1.09720       -1.13650
N          3.26070        0.56130       -0.80700
H          3.62160       -1.45350       -1.29440
O          1.35300       -2.29840       -0.54340
C          2.99550       -0.45350       -3.10930
C          2.17280        0.70170       -3.65470
C          1.11460        0.51170       -4.44960
O          0.55440       -0.38450       -1.32860
O          4.31890       -0.42910       -3.63550
H          2.56860       -1.39840       -3.51640
H          2.44220        1.72170       -3.40460
H          0.79460       -0.48470       -4.73690
H          0.55570        1.36610       -4.81860
O          4.16990        0.53440       -0.03280
O          2.52750        1.65100       -0.89660
H          2.09330       -2.89550       -0.36560
C          5.16230        0.53100       -3.04040
H          6.00620        0.72350       -3.73380
H          5.60160        0.12790       -2.10500
H          4.66660        1.51110       -2.88090
