21
TSA8_9_NO2_OH_OMe
C          1.92870       -0.13750       -0.12740
C          1.53160       -1.12230       -0.98600
N          1.81160        1.27180       -0.29670
H          2.37110       -0.46520        0.81110
O          1.64840       -2.40410       -0.56500
C          3.46440       -0.23520       -4.57780
C          2.85800        0.07130       -3.41550
C          1.36520       -0.04370       -3.24200
O          1.05000       -0.96810       -2.25740
O          4.80910       -0.13940       -4.76920
H          2.86360       -0.57560       -5.41530
H          3.43740        0.41760       -2.56690
H          0.88600       -0.38640       -4.18380
H          0.92690        0.94290       -3.06340
O          2.36520        1.98320        0.48570
O          0.85760        1.78690       -1.03360
H          1.97880       -2.65180        0.31130
C          5.73460        0.26530       -3.82850
H          6.74670        0.24280       -4.28200
H          5.72150       -0.42320       -2.95660
H          5.51830        1.30370       -3.49770
