23
TSA8_9_CH2F_I_Et
C          2.82010        1.44880        0.52920
C          1.64020        1.36370       -0.41810
C          2.75770        0.20030        1.44070
H          3.73390        1.38860       -0.10080
I          1.96070        1.18290       -2.49790
C          2.80910        2.85370        1.22860
C          1.73740        2.95800        2.29560
C          0.69860        3.79110        2.18380
O          0.49380        1.39660        0.00130
C          4.16820        3.39970        1.75100
H          2.57730        3.57520        0.40910
H          1.81290        2.34060        3.18550
H          0.57970        4.42970        1.31410
H         -0.04570        3.83610        2.97200
F          3.85810        0.05710        2.24780
H          2.71280       -0.70990        0.80320
H          1.84390        0.20890        2.07140
C          4.79860        2.75320        2.98330
H          3.99510        4.46580        2.02110
H          4.91150        3.38980        0.92410
H          4.09180        2.74100        3.83810
H          5.68600        3.35120        3.28090
H          5.18210        1.74610        2.76930
