14
TSA8_9_H_Br_H
C          2.25180       -0.08300        0.20770
C          1.38220       -1.07620        0.39530
H          2.73190        0.05400       -0.75640
H          2.49160        0.60210        1.01460
Br         0.57260       -1.26130        2.13280
C         -0.92920       -3.59320       -2.76520
C         -0.78520       -2.71960       -1.76400
C          0.19160       -2.94360       -0.64640
O          1.11310       -1.91390       -0.64140
H         -1.64550       -3.39690       -3.55630
H         -0.34070       -4.50460       -2.80640
H         -1.39190       -1.82050       -1.75810
H          0.73610       -3.90260       -0.78110
H         -0.37700       -3.00690        0.30240
