14
TSA8_9_H_Br_H
C          1.15560       -1.03480       -1.24520
C          1.33870       -1.53460        0.20540
H          2.13100       -0.94180       -1.76790
H          0.70240       -0.02170       -1.19490
Br         0.24930       -0.58630        1.52190
C          0.26160       -1.98400       -2.05620
C         -0.82380       -2.52350       -1.14090
C         -0.12590       -3.37300       -0.04910
O          1.18500       -2.93540        0.32070
H         -0.14490       -1.46170       -2.94830
H          0.85840       -2.85400       -2.41160
H         -1.36970       -1.66050       -0.70070
H          0.00260       -4.38440       -0.48750
H         -0.77960       -3.48060        0.84210
