23
TSA8_9_CH2F_F_Et
C          2.93260       -0.82180        1.07440
C          1.52200       -0.34530        1.35260
C          3.02790       -1.08730       -0.44670
H          3.60290        0.02690        1.33370
F          1.31800        0.90970        1.83060
C          3.26680       -2.01460        2.03860
C          2.55180       -3.29240        1.64480
C          1.61770       -3.85310        2.41920
O          0.56050       -1.07120        1.14860
C          4.76600       -2.29210        2.34450
H          2.89060       -1.68210        3.03550
H          2.80480       -3.77500        0.70600
H          1.33120       -3.40950        3.36760
H          1.13050       -4.76930        2.10190
F          4.30480       -1.34890       -0.87610
H          2.69550       -0.17780       -0.99290
H          2.36150       -1.92080       -0.75290
C          5.64400       -2.90030        1.25130
H          4.78300       -3.02070        3.18630
H          5.24730       -1.35950        2.71160
H          5.20090       -3.83530        0.85110
H          6.63250       -3.15120        1.69110
H          5.85660       -2.18550        0.44540
