23
TSA8_9_CH2F_F_Et
C          1.65390        0.01890        0.12220
C          1.27900       -0.04930        1.42450
C          2.12490       -1.05320       -0.82360
H          1.59840        1.00390       -0.33380
F          0.86970        1.11960        1.98520
C          4.00600       -2.98260        3.02530
C          3.26120       -2.38530        2.08090
C          1.75320       -2.41820        2.11940
O          1.24620       -1.14130        2.24620
C          5.51040       -2.93500        3.00060
H          3.52440       -3.50730        3.84590
H          3.75640       -1.85420        1.27600
H          1.41670       -2.99630        3.00620
H          1.30830       -2.93800        1.25070
F          3.38390       -0.72190       -1.28760
H          1.42800       -1.08460       -1.68690
H          2.17080       -2.06780       -0.42080
C          6.08460       -3.62760        1.76620
H          5.89890       -3.45160        3.90460
H          5.84810       -1.87670        3.02890
H          5.76850       -4.69220        1.74280
H          7.19360       -3.58580        1.80160
H          5.74540       -3.12560        0.83580
