23
TSA8_9_CH2F_F_Et
C          2.91380       -0.88670        1.22910
C          1.41200       -0.64060        1.59660
C          3.00510       -1.31110       -0.24640
H          3.43620        0.09450        1.29360
F          1.28610        0.59700        2.20340
C          3.50880       -1.86690        2.28180
C          2.68620       -3.17200        2.34950
C          1.20300       -2.90750        2.05050
O          0.84610       -1.61290        2.47250
C          5.04350       -2.10150        2.31590
H          3.30880       -1.33410        3.24060
H          3.01530       -3.96350        1.64650
H          0.58390       -3.66670        2.57040
H          0.97380       -3.02750        0.96740
F          4.29440       -1.19000       -0.71940
H          2.39510       -0.61250       -0.85890
H          2.62660       -2.33800       -0.41900
C          5.64300       -3.08490        1.30190
H          5.28540       -2.52930        3.31420
H          5.55920       -1.12050        2.24190
H          5.22100       -4.10130        1.43030
H          6.73580       -3.15970        1.48520
H          5.51310       -2.77790        0.25690
