26
TSA8_9_Et_CCl3_CCl3
C          2.40670        1.18490       -0.76970
C          1.19350        0.30670       -1.07040
C          2.55700        1.22810        0.77820
H          3.29540        0.65490       -1.17860
C          1.34900       -1.05410       -1.72940
C          2.21950        2.57900       -1.49340
C          2.05370        2.31900       -2.98240
C          0.91570        2.60050       -3.62790
O          0.08150        0.69750       -0.74010
C          3.32760        3.66090       -1.30080
H          1.27850        3.03570       -1.10980
H          2.88130        1.89360       -3.54180
H          0.83000        2.40260       -4.69090
H          0.06370        3.02730       -3.10650
C          4.00730        1.32500        1.26930
H          2.22450        0.25280        1.20130
H          1.89440        2.00570        1.21460
H          4.58280        0.44780        0.90440
H          4.01820        1.30730        2.37970
H          4.54060        2.22580        0.93970
Cl         2.10910       -0.91690       -3.33450
Cl         2.36930       -2.10110       -0.71010
Cl        -0.22700       -1.86810       -1.94320
Cl         4.95400        3.02920       -1.69060
Cl         3.03320        5.06780       -2.37080
Cl         3.30380        4.36700        0.33950
