26
TSA8_9_Et_CCl3_CCl3
C          1.91370       -0.13800       -0.15370
C          1.50550       -0.34080       -1.44510
C          1.93680        1.11890        0.68560
H          2.27760       -0.98620        0.41040
C          1.56640       -1.73240       -2.06990
C          2.35700        3.97600       -2.22350
C          2.24400        2.63870       -2.21930
C          0.89120        1.98050       -2.24000
O          1.00900        0.60790       -2.30170
C          3.69780        4.66490       -2.21850
H          1.45400        4.58060       -2.23780
H          3.13690        2.01900       -2.20850
H          0.37270        2.31210       -3.16440
H          0.23880        2.28300       -1.39680
C          3.35750        1.40050        1.16270
H          1.28970        0.95340        1.57300
H          1.56970        2.02040        0.19330
H          3.74700        0.54390        1.75350
H          3.36340        2.30520        1.80670
H          4.02610        1.57260        0.29340
Cl         2.57590       -1.65420       -3.53690
Cl         2.22820       -3.04880       -1.04890
Cl        -0.07990       -2.21590       -2.54900
Cl         4.63980        4.20100       -3.65940
Cl         3.46990        6.43210       -2.24160
Cl         4.61870        4.24060       -0.75350
