19
TSA8_9_NO2_CCl3_I
C          2.57670       -1.29470        0.21640
C          1.33170       -0.78300        0.92100
N          2.76040       -0.55880       -1.02280
H          3.45820       -1.12000        0.87530
C          1.42450       -0.08200        2.26150
C          2.48600       -2.81080       -0.07700
C          2.30540       -3.61270        1.18640
C          1.23430       -4.38730        1.38410
O          0.24270       -0.92320        0.38140
I          4.27850       -3.50280       -1.03040
H          1.64100       -2.99760       -0.77670
H          3.06810       -3.56070        1.95770
H          1.13560       -4.95180        2.30530
H          0.45100       -4.46600        0.63620
O          3.74050        0.10390       -1.18550
O          1.85270       -0.61430       -1.97470
Cl         2.14990       -1.15200        3.48750
Cl         2.43430        1.37800        2.10400
Cl        -0.18280        0.42260        2.85790
