19
TSA8_9_NO2_CCl3_I
C          2.07790       -0.09300        0.24550
C          1.56200       -0.69960        1.36980
N          2.29580       -0.60370       -1.07420
H          2.37350        0.94310        0.34260
C          1.41570        0.09550        2.66950
C          2.99930       -4.70080       -0.00780
C          2.67420       -3.56150        0.60750
C          1.23540       -3.16420        0.79670
O          1.14360       -1.99760        1.52400
I          5.02510       -5.24290       -0.24500
H          2.23070       -5.36590       -0.38960
H          3.46270       -2.91580        0.98340
H          0.74110       -3.96210        1.38930
H          0.65300       -3.09860       -0.14030
O          2.79230        0.11780       -1.88520
O          1.90640       -1.79030       -1.46230
Cl         2.39110       -0.70220        3.93070
Cl         1.91030        1.81880        2.64230
Cl        -0.28980        0.05640        3.18530
