26
TSA8_9_CHF2_Et_CH2F
C          1.88500       -0.17670        0.04280
C          1.48830       -1.47380        0.23850
C          1.99240        0.72560       -1.16850
H          2.18970        0.36650        0.93370
C          1.48960       -1.99860        1.65940
C          3.17090       -3.53270       -3.10760
C          2.61290       -2.48290       -2.48760
C          1.16750       -2.48670       -2.05730
O          1.07980       -2.39750       -0.68610
C          4.61450       -3.51330       -3.50900
H          2.58310       -4.42090       -3.32200
H          3.22400       -1.61130       -2.27730
H          0.69180       -3.44620       -2.35330
H          0.55420       -1.71480       -2.54970
F          3.30860        1.11920       -1.31860
F          1.54960        0.21760       -2.35880
H          1.38120        1.62980       -0.96530
C          2.43870       -3.18720        1.79280
H          0.45970       -2.32080        1.92330
H          1.80030       -1.22690        2.39750
H          2.13320       -4.01150        1.11310
H          2.41780       -3.56640        2.83610
H          3.47680       -2.87790        1.54520
F          4.84350       -2.48250       -4.40210
H          4.88130       -4.47630       -3.99210
H          5.25370       -3.37370       -2.61160
