26
TSA8_9_CHF2_Et_CH2F
C          2.84440       -1.42610       -0.94100
C          1.47230       -1.75830       -0.26730
C          2.81040        0.03590       -1.43160
H          3.66000       -1.47600       -0.18730
C          1.51620       -1.84640        1.26420
C          3.13900       -2.51080       -2.01710
C          1.94230       -2.71730       -2.96360
C          0.61120       -2.62820       -2.19830
O          0.81810       -2.89000       -0.82620
C          4.45720       -2.36120       -2.78820
H          3.23130       -3.45740       -1.43670
H          1.90810       -2.01980       -3.82760
H         -0.10950       -3.35450       -2.62690
H          0.13980       -1.62570       -2.33290
F          4.05470        0.44370       -1.87280
F          1.88110        0.21930       -2.43860
H          2.53850        0.69610       -0.58010
C          2.27740       -3.07780        1.76000
H          0.47310       -1.90310        1.64190
H          1.98240       -0.92520        1.67520
H          1.79990       -4.00630        1.38140
H          2.26080       -3.10110        2.86960
H          3.33610       -3.05810        1.42890
F          4.42210       -1.28730       -3.65860
H          4.63350       -3.27790       -3.39070
H          5.30450       -2.24420       -2.07970
