20
TSA8_9_NH2_Cl_OMe
C          3.06040        1.44260       -0.15160
C          1.62620        1.15720       -0.53950
N          3.50070        0.48280        0.86600
H          3.68410        1.30460       -1.06230
Cl         1.23880        0.70120       -2.19150
C          3.24190        2.92570        0.30640
C          2.53930        3.25060        1.61300
C          1.51800        4.11100        1.67690
O          0.72750        1.23360        0.28340
O          4.59270        3.38000        0.32410
H          2.76770        3.52630       -0.50250
H          2.86570        2.77540        2.53210
H          1.14710        4.61450        0.78970
H          1.04170        4.31540        2.63050
H          3.44540       -0.48630        0.47720
H          2.88450        0.52860        1.70950
C          5.46840        2.56740        1.07600
H          6.39520        3.14610        1.26650
H          5.76540        1.67030        0.49280
H          5.06150        2.30110        2.07340
