20
TSA8_9_NH2_Cl_OMe
C          1.76810        0.11950       -0.06140
C          1.40850        1.17730       -0.83320
N          2.00680        0.12080        1.33770
H          1.86880       -0.84020       -0.56010
Cl         1.13440        0.84200       -2.53720
C          3.78080        4.33360        0.80580
C          3.07310        3.18940        0.84010
C          1.57310        3.17540        0.67930
O          1.22670        2.48140       -0.46140
O          5.13720        4.37760        0.92320
H          3.26100        5.27660        0.67020
H          3.58160        2.24210        0.97020
H          1.19680        4.21400        0.56240
H          1.04830        2.77710        1.56760
H          2.27080       -0.76620        1.79130
H          1.90620        0.93350        1.94710
C          5.97210        3.28830        1.07330
H          7.02250        3.64020        1.12780
H          5.87310        2.60620        0.20200
H          5.73010        2.74520        2.01170
