20
TSA8_9_NH2_Cl_OMe
C          2.94280        1.43150       -0.10470
C          1.40770        1.41500       -0.40900
N          3.20910        0.70270        1.13960
H          3.49800        0.91120       -0.91640
Cl         1.11480        0.89740       -2.09070
C          3.41450        2.90880       -0.04860
C          2.59490        3.74030        0.95640
C          1.14000        3.24090        1.01110
O          0.76460        2.67650       -0.22670
O          4.81500        3.14640        0.02640
H          3.12120        3.30910       -1.04480
H          2.99210        3.75830        1.99210
H          0.47450        4.09310        1.26050
H          0.98580        2.49950        1.82620
H          2.89570       -0.28930        1.03320
H          2.71080        1.12290        1.95410
C          5.44790        2.48970        1.10220
H          6.39480        3.02430        1.32190
H          5.71150        1.45000        0.81420
H          4.86120        2.51680        2.04310
