18
TSA8_9_Cl_OH_Me
C          2.57110       -2.36930        0.75630
C          1.26550       -1.71470        0.21890
Cl         4.01170       -1.45050        0.20980
H          2.58080       -2.30800        1.86660
O          0.25270       -1.88520        1.16560
C          2.59590       -3.83080        0.28410
C          2.56260       -3.89060       -1.25630
C          1.84500       -2.66630       -1.85570
O          0.78930       -2.23770       -1.02500
C          3.76860       -4.63430        0.85400
H          1.65700       -4.29900        0.65610
H          3.57290       -3.93310       -1.71930
H          1.45700       -2.93200       -2.86060
H          2.54870       -1.82140       -2.02260
H          0.05930       -0.97060        1.49310
H          3.73970       -4.61180        1.96420
H          4.73950       -4.21730        0.51260
H          3.69960       -5.69210        0.52220
