17
TSA8_9_Cl_I_Me
C          3.00270        0.46250       -1.41900
C          1.44780        0.41760       -1.49600
Cl         3.52460        1.14730        0.15440
H          3.40570       -0.57280       -1.44060
I          0.83420       -1.31140       -2.60370
C          3.52260        1.28540       -2.60890
C          2.93750        2.71140       -2.56200
C          1.55510        2.73020       -1.88600
O          0.84960        1.53850       -2.15220
C          5.05060        1.30850       -2.71290
H          3.13180        0.79530       -3.52860
H          3.57840        3.43590       -2.01320
H          0.98170        3.60550       -2.25490
H          1.64070        2.87110       -0.78560
H          5.44130        0.27160       -2.79300
H          5.50260        1.79360       -1.82230
H          5.35990        1.87150       -3.61910
