17
TSA8_9_CH2F_I_H
C          1.73500        0.97450       -1.63800
C          1.08040       -0.40360       -1.42950
C          1.46930        1.87750       -0.42220
H          2.83800        0.85800       -1.71500
I          1.85490       -1.97270       -2.68890
C          1.20080        1.58370       -2.94630
C         -0.32850        1.57890       -2.95050
C         -0.82330        0.15480       -2.66660
O         -0.33880       -0.33160       -1.42320
H          1.59290        2.61180       -3.09990
H          1.54590        0.96210       -3.80100
H         -0.72650        2.27510       -2.18330
H         -0.55320       -0.53030       -3.49860
H         -1.93220        0.17470       -2.62940
F          2.02470        1.31220        0.71230
H          0.38510        2.02450       -0.24190
H          1.93920        2.87100       -0.58330
