22
TSA8_9_NO2_CH2F_CF3
C          2.82440        1.20780       -1.14630
C          1.52280        0.49500       -1.45140
N          3.11870        1.11650        0.27690
H          3.62650        0.67450       -1.70710
C          1.51290       -0.70440       -2.35380
C          2.81780        2.67760       -1.67210
C          1.78770        3.55270       -0.98200
C          0.76560        4.10410       -1.64360
O          0.47340        0.88540       -0.96040
C          4.20760        3.33550       -1.55400
H          2.58420        2.62430       -2.76040
H          1.87990        3.75610        0.07940
H          0.62770        3.93960       -2.70720
H          0.05460        4.73000       -1.11380
O          4.10050        0.54500        0.64450
O          2.28380        1.59740        1.17280
F          1.99180       -0.35470       -3.60300
H          0.48280       -1.10590       -2.46320
H          2.15930       -1.49720       -1.92240
F          4.59580        3.44510       -0.23020
F          5.14920        2.58580       -2.23750
F          4.17390        4.60170       -2.11270
