22
TSA8_9_NO2_CH2F_CF3
C          1.92700        0.01550       -0.09530
C          1.45580        0.26340       -1.35800
N          1.98710        0.87980        1.04020
H          2.30290       -0.98910        0.08800
C          1.45090       -0.88640       -2.33420
C          3.17780        4.02230       -2.31080
C          2.62030        3.11570       -1.49010
C          1.15550        2.76790       -1.57310
O          0.99480        1.43540       -1.89920
C          4.63900        4.38160       -2.26930
H          2.56210        4.53030       -3.04790
H          3.22670        2.60720       -0.74830
H          0.66670        3.36210       -2.37440
H          0.59610        3.04530       -0.67010
O          2.53580        0.48280        2.02350
O          1.27140        1.97090        1.12980
F          2.24290       -0.56780       -3.42160
H          0.41170       -1.06060       -2.68360
H          1.82500       -1.83670       -1.89650
F          5.32650        3.65510       -1.31180
F          5.19930        4.12780       -3.50710
F          4.76620        5.72800       -1.98550
