22
TSA8_9_NO2_CH2F_CF3
C          2.89630        1.34320       -1.21940
C          1.44960        0.83670       -1.50930
N          3.12440        1.34630        0.21630
H          3.64210        0.66750       -1.69990
C          1.41890       -0.53060       -2.18720
C          3.08670        2.74510       -1.85310
C          1.93590        3.69520       -1.47130
C          0.58650        2.95340       -1.47100
O          0.67230        1.77250       -2.24340
C          4.46870        3.37210       -1.60330
H          2.99500        2.58920       -2.95240
H          2.06500        4.21450       -0.49730
H         -0.20080        3.62290       -1.87370
H          0.26760        2.71050       -0.42940
O          3.99650        0.67600        0.68150
O          2.36450        2.05980        1.01900
F          1.99280       -0.45320       -3.44410
H          0.36730       -0.87020       -2.28990
H          1.97290       -1.27150       -1.57340
F          4.65920        3.63010       -0.25750
F          5.46200        2.51480       -2.04270
F          4.57300        4.56150       -2.30290
