22
TSA8_9_CH2F_NO2_CHF2
C          2.19210        1.51630       -1.80520
C          0.75920        1.49700       -1.16630
C          3.23630        1.09530       -0.75100
H          2.23900        0.73520       -2.59750
N         -0.15730        0.75340       -2.00100
C          2.41280        2.91600       -2.43750
C          2.23640        4.02180       -1.37820
C          1.16690        3.63640       -0.34310
O          0.20330        2.79100       -0.92660
C          3.70480        3.11180       -3.24820
H          1.57820        3.03650       -3.16460
H          3.16780        4.27310       -0.82590
H          0.68640        4.55830        0.04420
H          1.61050        3.13990        0.54810
F          4.47520        0.89510       -1.32860
H          2.92850        0.12490       -0.30600
H          3.33470        1.83010        0.07060
O         -0.43150        1.14080       -3.09650
O         -0.71000       -0.34600       -1.53990
F          4.82780        3.10370       -2.44240
F          3.81890        2.12720       -4.21340
H          3.66480        4.09830       -3.75770
