18
TSA8_9_OMe_H_I
C          0.52090       -1.05160        0.74540
C          1.51720        0.03940        1.05780
O          1.15520       -2.10750        0.04240
H         -0.32490       -0.62530        0.15460
H          1.34780        1.04670        0.69130
C         -0.08320       -1.62010        2.04390
C         -0.80310       -0.54950        2.82620
C         -0.43690       -0.21320        4.06700
O          2.51780       -0.19870        1.71660
I         -1.49480       -3.17010        1.59650
H          0.72910       -2.07610        2.65350
H         -1.64220       -0.03550        2.36680
H          0.39830       -0.70190        4.55910
H         -0.97650        0.56320        4.59930
C          1.38580       -1.74570       -1.30370
H          1.73600       -2.64510       -1.84990
H          2.18860       -0.98090       -1.37670
H          0.45540       -1.40960       -1.81330
