18
TSA8_9_OMe_H_I
C          1.36180        0.03700       -0.19090
C          0.94360        0.29890        1.04870
O          1.54930       -1.24290       -0.58900
H          1.53530        0.86020       -0.88060
H          0.77980        1.33050        1.34850
C         -1.19650       -2.42200        4.11720
C         -1.08260       -1.43810        3.21950
C          0.13370       -0.56110        3.15150
O          0.71600       -0.71910        1.91240
I         -2.91860       -3.64100        4.15370
H         -0.40790       -2.61790        4.83740
H         -1.88570       -1.26770        2.50880
H          0.87350       -0.84180        3.93230
H         -0.17420        0.49290        3.33020
C          1.90160       -1.57010       -1.87730
H          1.99140       -2.67260       -1.96050
H          2.87720       -1.10700       -2.13800
H          1.11900       -1.22160       -2.58500
