20
TSA8_9_I_CH2F_CH2F
C          2.22910        1.18630        1.57990
C          1.22530        2.27630        1.29120
I          1.27720       -0.70200        1.17950
H          3.08850        1.27780        0.87890
C          1.49580        3.28780        0.21540
C          2.75490        1.25930        3.03530
C          3.74150        0.14020        3.28630
C          3.53430       -0.79020        4.22390
O          0.18840        2.33520        1.93660
C          3.45290        2.60120        3.31460
H          1.88950        1.16710        3.73000
H          4.64720        0.09030        2.68810
H          2.64280       -0.77600        4.84320
H          4.26450       -1.57810        4.37630
F          0.45230        4.19170        0.11730
H          1.61620        2.76920       -0.75870
H          2.42940        3.83960        0.45190
F          3.89710        2.64430        4.62490
H          2.75040        3.44700        3.16290
H          4.32130        2.73830        2.63420
