25
TSA8_9_Et_CF3_NO2
C          2.58020        1.56330       -0.34440
C          1.19240        1.46330       -1.07670
C          2.43340        0.80880        1.01170
H          3.35310        1.02320       -0.93510
C          1.31440        0.87150       -2.48460
C          2.95020        3.07440       -0.27930
C          1.86350        3.84680        0.48640
C          0.46380        3.31830        0.12040
O          0.48630        2.70400       -1.15100
N          4.28320        3.39780        0.20220
H          2.90830        3.45100       -1.32580
H          1.98280        3.82560        1.59110
H         -0.25680        4.16170        0.12720
H          0.08100        2.59970        0.87860
C          3.71670        0.61860        1.81470
H          2.06090       -0.21310        0.78070
H          1.68540        1.29210        1.67030
H          4.48370        0.10380        1.19750
H          3.50000       -0.01670        2.69960
H          4.09970        1.58460        2.19580
F          0.05700        0.75050       -3.04470
F          2.08890        1.69340       -3.28410
F          1.89300       -0.38360       -2.42150
O          5.12940        2.55820        0.26030
O          4.64350        4.66130        0.27090
