22
TSA8_9_CHF2_CCl3_NO2
C          2.34810       -1.68590        0.52500
C          1.42340       -0.77030        1.31480
C          2.46900       -1.14880       -0.92290
H          3.36060       -1.61000        0.97970
C          1.94810        0.03590        2.48570
C          1.89690       -3.17680        0.69560
C          0.56980       -3.48800        0.03400
C         -0.50600       -3.86110        0.73370
O          0.24500       -0.68440        0.99740
N          2.90240       -4.11620        0.22750
H          1.79790       -3.33160        1.79600
H          0.48490       -3.42050       -1.04570
H         -0.47310       -3.94970        1.81430
H         -1.43530       -4.08120        0.21780
F          3.41790       -1.83430       -1.65370
F          1.25840       -1.18160       -1.59120
H          2.80220       -0.08960       -0.88230
Cl         2.61360       -1.05360        3.72980
Cl         3.23410        1.14140        1.93680
Cl         0.66400        1.01950        3.24520
O          3.14970       -4.22740       -0.93460
O          3.48890       -4.92250        1.08730
