22
TSA8_9_CHF2_CCl3_NO2
C          2.04080       -0.15710        0.03300
C          1.62520       -0.57030        1.27620
C          1.82620       -0.65610       -1.38200
H          2.65510        0.73040       -0.01160
C          2.02230        0.22220        2.52210
C          1.76410       -4.89330        1.02600
C          1.62100       -3.64570        0.54310
C          0.43670       -2.78710        0.91420
O          0.85150       -1.65890        1.58560
N          2.87820       -5.71530        0.69330
H          1.01000       -5.29770        1.69570
H          2.37350       -3.23840       -0.12300
H         -0.22700       -3.35040        1.60450
H         -0.21590       -2.53010        0.06480
F          3.05750       -0.92750       -1.94870
F          1.02660       -1.75230       -1.54660
H          1.35690        0.16940       -1.95790
Cl         2.90260       -0.86290        3.62910
Cl         3.05530        1.66770        2.28150
Cl         0.54020        0.77360        3.34440
O          3.73990       -5.32290       -0.03590
O          2.96250       -6.92620        1.19770
