18
TSA8_9_F_CN_CCl3
C          2.99360        0.68240        1.68030
C          2.00730        1.76440        1.26230
F          2.87670       -0.40720        0.82420
H          3.99530        1.12040        1.51170
C          2.09360        2.32750       -0.06270
C          2.82330        0.24480        3.17030
C          1.83990       -0.91480        3.25250
C          0.62920       -0.81680        3.80220
O          1.23740        2.26570        2.06140
C          4.16130       -0.11530        3.87330
H          2.45070        1.11880        3.74700
H          2.13140       -1.87560        2.83230
H          0.27340        0.11750        4.21810
H         -0.02040       -1.68810        3.81870
N          2.13940        2.78530       -1.12650
Cl         3.87090       -0.40730        5.61210
Cl         4.95140       -1.55800        3.17880
Cl         5.31500        1.25110        3.78590
