17
TSA8_9_NH2_I_OH
C          1.77060       -2.04930        0.79380
C          1.28440       -0.71740        1.32180
N          1.68210       -2.08020       -0.66850
H          2.84500       -2.13360        1.07040
I          2.57750        0.51580        2.44570
C          1.08500       -3.29980        1.41150
C         -0.41070       -3.40090        1.18540
C         -1.29460       -2.63250        1.82940
O          0.16870       -0.30150        1.05340
O          1.69890       -4.43410        0.85270
H          1.27860       -3.29790        2.51050
H         -0.79050       -4.16430        0.51240
H         -0.97640       -1.88950        2.55270
H         -2.35700       -2.76190        1.65210
H          2.24550       -1.29550       -1.07060
H          0.68850       -1.97450       -0.97600
H          1.51390       -5.19620        1.46250
