26
TSA8_9_Et_Me_CCl3
C          2.57760        1.18340        0.97820
C          1.42970        1.63500        0.08850
C          2.56180       -0.37550        0.93750
H          3.50780        1.53320        0.48410
C          1.70570        2.40610       -1.16780
C          2.44520        1.92480        2.36590
C          1.46450        1.21880        3.28160
C          0.30420        1.77300        3.64650
O          0.27410        1.37480        0.39250
C          3.76900        2.30390        3.11130
H          2.04420        2.93610        2.11560
H          1.70910        0.23160        3.65940
H          0.01590        2.75890        3.29580
H         -0.36900        1.23410        4.30530
C          3.68220       -1.10790        1.65560
H          2.63950       -0.66960       -0.13370
H          1.59290       -0.76710        1.31850
H          4.67350       -0.73210        1.32530
H          3.55390       -1.03080        2.74740
H          3.61650       -2.19090        1.41810
H          2.23560        3.34870       -0.91670
H          0.75900        2.65580       -1.69280
H          2.34120        1.79820       -1.84520
Cl         4.84480        3.25050        2.04380
Cl         3.37990        3.37090        4.49280
Cl         4.72260        0.96470        3.78450
