26
TSA8_9_Et_Me_CCl3
C          1.89390        0.20260       -0.06500
C          1.45460        1.49550       -0.09170
C          1.92340       -0.80640        1.05920
H          2.27490       -0.20630       -0.99780
C          1.53490        2.24080       -1.39810
C          2.53390        3.03190        3.81810
C          2.20810        2.08390        2.91970
C          0.83530        2.02750        2.29740
O          0.91660        2.22400        0.93440
C          3.88880        3.17010        4.47590
H          1.78360        3.76540        4.10200
H          2.93410        1.34500        2.61570
H          0.20840        2.84740        2.70840
H          0.28250        1.10120        2.53760
C          3.34440       -1.32410        1.26820
H          1.27950       -1.66280        0.76660
H          1.55430       -0.44170        2.02020
H          3.73080       -1.78330        0.33340
H          4.02170       -0.49830        1.57110
H          3.34520       -2.09740        2.06550
H          2.16720        3.14340       -1.26370
H          0.51530        2.55910       -1.70070
H          1.96820        1.63580       -2.22290
Cl         4.54310        4.77940        4.08980
Cl         3.68130        3.05180        6.23900
Cl         5.09540        1.94720        3.97480
