26
TSA8_9_Et_Me_CCl3
C          2.45810        1.25820        1.13160
C          1.12770        1.66230        0.38520
C          2.44860       -0.28010        1.34360
H          3.30040        1.46190        0.43340
C          1.41020        2.49670       -0.86400
C          2.57940        2.17260        2.39770
C          1.31500        2.04450        3.28190
C          0.06660        1.75880        2.44250
O          0.18880        2.37650        1.18640
C          3.87740        2.17430        3.25540
H          2.54400        3.19320        1.95150
H          1.37300        1.25460        4.05980
H         -0.82870        2.14090        2.97460
H         -0.10410        0.66540        2.31490
C          3.83620       -0.92000        1.44640
H          2.01670       -0.74350        0.42820
H          1.80580       -0.57220        2.19900
H          4.42910       -0.69160        0.53440
H          4.41460       -0.58760        2.31360
H          3.72470       -2.02250        1.51950
H          1.89750        3.45540       -0.58620
H          0.45720        2.71460       -1.38990
H          2.07080        1.93550       -1.55850
Cl         5.33100        2.26250        2.22370
Cl         3.88580        3.63350        4.28690
Cl         4.02200        0.79110        4.37990
