20
TSA8_9_CHF2_CF3_F
C          1.68920       -0.54630       -1.65660
C          0.88680       -1.37110       -0.66750
C          1.62680        0.95070       -1.28500
H          2.75750       -0.84670       -1.57030
C          1.56870       -2.39650        0.19580
C          1.27220       -0.86210       -3.11790
C         -0.16370       -0.52050       -3.44010
C         -1.04530       -1.45540       -3.80910
O         -0.32050       -1.20470       -0.56570
F          2.09400       -0.18150       -3.99920
H          1.44390       -1.94970       -3.28130
H         -0.49570        0.51000       -3.38290
H         -0.76040       -2.50020       -3.88510
H         -2.06830       -1.17530       -4.03760
F          2.41470        1.69850       -2.14150
F          0.33310        1.43910       -1.31250
H          2.01990        1.08430       -0.25430
F          0.65250       -3.02640        1.02000
F          2.17630       -3.34500       -0.60610
F          2.52680       -1.77990        0.97910
