20
TSA8_9_CHF2_CF3_F
C          1.92370       -0.09220       -0.04950
C          1.27990       -1.03420       -0.77830
C          2.10120        1.35420       -0.44890
H          2.35900       -0.35700        0.90890
C          1.16850       -2.46190       -0.25670
C         -0.06720       -1.15920       -5.25260
C         -0.39820       -0.72490       -4.03190
C         -0.03550       -1.48940       -2.79220
O          0.74100       -0.68660       -1.98100
F         -0.41590       -0.43600       -6.34840
H          0.47910       -2.08760       -5.38760
H         -0.94660        0.20660       -3.92970
H          0.51760       -2.41610       -3.05470
H         -0.97360       -1.76030       -2.26390
F          3.45110        1.64330       -0.50830
F          1.52590        1.66380       -1.66820
H          1.63370        1.99340        0.32790
F         -0.16270       -2.81220       -0.13200
F          1.78440       -3.32620       -1.14240
F          1.76980       -2.61780        0.98070
