20
TSA8_9_CHF2_CF3_F
C          1.67580       -0.23810       -1.67520
C          0.71680       -1.10560       -0.82640
C          1.45670        1.25350       -1.33400
H          2.72990       -0.45360       -1.39340
C          1.17250       -2.54500       -0.51620
C          1.48620       -0.58570       -3.16840
C          0.01190       -0.51260       -3.56020
C         -0.80750       -1.38820       -2.60340
O         -0.64090       -1.00120       -1.24660
F          2.24470        0.23780       -3.98130
H          1.82530       -1.62800       -3.34090
H         -0.35720        0.53160       -3.53400
H         -0.57690       -2.46290       -2.74570
H         -1.87840       -1.27390       -2.87080
F          2.32690        2.05080       -2.05560
F          0.15900        1.67190       -1.56240
H          1.67170        1.40680       -0.25470
F          0.24430       -3.14650        0.31290
F          1.31940       -3.31120       -1.65610
F          2.38680       -2.50490        0.14360
