16
TSA8_9_F_NO2_Cl
C          2.80600        0.59560       -1.13380
C          1.27120        0.82810       -1.30810
F          3.15150        0.70930        0.20300
H          3.08720       -0.42920       -1.45850
N          0.77620        0.04550       -2.42590
C          3.54460        1.65870       -1.94650
C          3.17330        3.06150       -1.43440
C          1.77000        3.07340       -0.80090
O          0.90250        2.20230       -1.49210
Cl         5.31290        1.42120       -1.91020
H          3.20700        1.56740       -3.00170
H          3.87580        3.43890       -0.65930
H          1.36960        4.10790       -0.81880
H          1.80900        2.77940        0.27260
O          0.23490        0.57390       -3.35070
O          0.85890       -1.26720       -2.39190
