19
TSA8_9_F_NO2_CHF2
C          2.26680       -1.92240        0.31540
C          1.22140       -2.25520        1.36070
F          1.66600       -1.13650       -0.65460
H          3.10260       -1.33490        0.75250
N          1.37040       -1.89570        2.66680
C          2.84350       -3.19960       -0.33770
C          3.78470       -2.81790       -1.45890
C          3.55550       -3.17820       -2.72600
O          0.21700       -2.86090        1.00990
C          3.59000       -4.07720        0.68450
H          1.99710       -3.79390       -0.75080
H          4.67210       -2.23340       -1.23200
H          2.68020       -3.76140       -2.99580
H          4.24980       -2.88760       -3.50740
O          0.52550       -2.17190        3.46500
O          2.44170       -1.24570        3.06970
F          4.05960       -5.22460        0.06940
F          4.65950       -3.39060        1.23510
H          2.90560       -4.38240        1.50340
