19
TSA8_9_F_NO2_CHF2
C          2.92850       -1.92400        0.51920
C          1.44460       -1.55720        0.19920
F          3.78240       -1.23420       -0.32730
H          3.18260       -1.61620        1.55630
N          0.63360       -1.71680        1.39290
C          3.09270       -3.43650        0.31860
C          2.77240       -3.79930       -1.14780
C          1.82320       -2.77310       -1.79350
O          0.86050       -2.31870       -0.86850
C          4.46980       -3.96620        0.74460
H          2.33160       -3.93090        0.96270
H          3.67390       -3.84720       -1.79700
H          1.32160       -3.24230       -2.66480
H          2.38340       -1.90060       -2.19950
O         -0.29750       -2.46510        1.40480
O          0.89020       -0.99140        2.46040
F          5.47770       -3.39010       -0.00890
F          4.69180       -3.69080        2.08220
H          4.50310       -5.06780        0.60450
