20
TSA8_9_CN_NH2_Me
C          1.65660        0.00360        0.05950
C          1.53410       -0.43890        1.33970
C          1.81830       -0.77820       -1.14020
H          1.68440        1.07490       -0.10480
N          1.63100        0.54230        2.35210
C          3.52350       -3.78410        1.73660
C          2.73160       -3.36680        0.73580
C          1.33740       -2.88650        0.98730
O          1.38740       -1.73900        1.74750
C          4.89790       -4.31240        1.45460
H          3.16700       -3.77250        2.76540
H          3.08950       -3.38730       -0.28480
H          0.77490       -3.68450        1.52660
H          0.77330       -2.71310        0.05020
N          1.95220       -1.36760       -2.12770
H          1.91240        0.24160        3.29540
H          1.76020        1.53340        2.10300
H          5.52950       -3.53550        0.97510
H          4.82240       -5.18970        0.77770
H          5.38120       -4.64100        2.39830
