23
TSA8_9_OMe_CH2F_NH2
C          1.25300        1.26250       -0.60280
C          1.75430        0.12090       -1.45330
O          2.30610        1.62810        0.27800
H          0.33530        0.91700       -0.06260
C          1.08120       -1.22060       -1.41590
C          0.84410        2.51160       -1.43050
C         -0.32690        2.26810       -2.37050
C         -0.26730        1.45860       -3.43260
O          2.73830        0.28040       -2.16080
N          0.49590        3.59320       -0.50440
H          1.71650        2.85470       -2.03040
H         -1.25940        2.79850       -2.19430
H          0.63450        0.91910       -3.69220
H         -1.13830        1.34080       -4.06910
C          1.92870        1.44940        1.62600
H          1.13410        2.17250        1.91210
H          2.81100        1.65160        2.26740
H          1.61670        0.39990        1.82540
F         -0.23770       -1.10430       -1.81190
H          1.11710       -1.62240       -0.38200
H          1.59800       -1.93470       -2.09260
H         -0.34810        3.33550        0.05760
H          0.29190        4.46800       -1.03990
