21
TSA8_9_CHF2_OH_Me
C          1.77140       -0.08180        0.09560
C          1.75890       -1.40250        0.36980
C          1.65820        0.52090       -1.28410
H          1.89600        0.61740        0.91730
O          1.89510       -1.82690        1.64800
C          2.70270       -5.52190        0.13210
C          2.88750       -4.19610        0.19180
C          2.52950       -3.28760       -0.95590
O          1.60550       -2.31330       -0.62390
C          3.11460       -6.40270        1.27030
H          2.26440       -5.97720       -0.75180
H          3.34090       -3.76480        1.07930
H          2.11790       -3.87180       -1.80720
H          3.45850       -2.79130       -1.30870
F          2.80760        1.24070       -1.55120
F          1.48630       -0.42400       -2.27970
H          0.79250        1.21270       -1.30650
H          1.99350       -1.21920        2.39520
H          2.56240       -6.11980        2.19090
H          4.20620       -6.29760        1.44970
H          2.89370       -7.46230        1.02530
