20
TSA8_9_I_CBr3_CF3
C          1.92870       -0.99100       -2.18270
C          0.73770       -1.90210       -1.96850
I          1.65520        0.70780       -0.88450
H          2.85620       -1.50810       -1.85170
C          0.88890       -3.25940       -1.30840
C          2.09110       -0.51650       -3.65570
C          3.30480        0.38530       -3.75750
C          3.21310        1.66400       -4.13540
O         -0.37110       -1.50830       -2.30260
C          2.25730       -1.66920       -4.66850
H          1.17500        0.04820       -3.94090
H          4.28330       -0.01940       -3.51570
H          2.25530        2.11040       -4.38490
H          4.10740        2.27530       -4.19420
Br         1.58770       -3.04090        0.48690
Br        -0.81390       -4.18830       -1.16370
Br         2.09590       -4.41140       -2.29410
F          3.37670       -2.42630       -4.36880
F          1.14200       -2.48640       -4.67400
F          2.40550       -1.14830       -5.94270
