24
TSA8_9_OMe_CHF2_Me
C          1.53490        0.05380        0.08180
C          1.30890       -1.25800       -0.07670
O          1.60570        0.85020       -1.00980
H          1.63300        0.48240        1.07740
C          1.20260       -2.17360        1.12170
C         -0.35290       -2.39020       -4.26410
C         -0.35160       -1.79940       -3.06190
C          0.15460       -2.48830       -1.83140
O          1.20030       -1.73530       -1.34140
C         -0.82900       -1.65530       -5.47890
H          0.00080       -3.41160       -4.37420
H         -0.70910       -0.77540       -2.96670
H          0.51480       -3.51450       -2.06030
H         -0.68100       -2.55380       -1.10410
C          1.70630        2.22030       -0.92310
H          1.74280        2.64600       -1.94610
H          2.62960        2.50300       -0.37750
H          0.81600        2.63050       -0.39890
F         -0.03780       -2.77930        1.17670
F          2.18040       -3.14710        1.03700
H          1.35000       -1.61500        2.07100
H         -0.19390       -0.75890       -5.64620
H         -1.88440       -1.33760       -5.34600
H         -0.75760       -2.31430       -6.36910
