21
TSA8_9_NH2_CN_OMe
C          2.44220       -0.37210        1.19810
C          1.59570        0.85450        0.90660
N          2.05530       -1.43650        0.26440
H          3.49340       -0.06600        1.00200
C          1.66660        1.50300       -0.38580
C          2.32300       -0.93300        2.65360
C          2.23790        0.11750        3.75610
C          1.11660        0.26280        4.47720
O          0.89530        1.38880        1.75700
O          3.31130       -1.93350        2.91410
H          1.34610       -1.46510        2.67140
H          3.07560        0.77760        3.95630
H          1.04930        1.02140        5.24720
H          0.24620       -0.36300        4.29350
H          2.68910       -2.26200        0.36180
H          2.09290       -1.10920       -0.72680
N          1.72250        1.99380       -1.42990
C          4.57470       -1.39860        3.28160
H          4.55300       -0.96760        4.30580
H          4.96600       -0.66750        2.54410
H          5.31160       -2.22730        3.32240
