18
TSA8_9_CF3_Br_CN
C          1.39860        1.47300        1.05720
C          1.93210        1.69230       -0.35430
C          2.05510        0.26430        1.77340
H          0.36040        1.13870        0.90350
Br         1.86970        0.26810       -1.63340
C          1.21220        2.77130        1.92930
C          0.38360        3.76950        1.15670
C         -0.86970        3.47190        0.80000
O          2.30800        2.79260       -0.73260
C          2.41290        3.41740        2.47820
H          0.62820        2.48840        2.83340
H          0.80720        4.72720        0.85850
H         -1.45860        4.16200        0.21310
H         -1.32150        2.52660        1.09210
F          3.40230        0.14710        1.47940
F          1.89970        0.35140        3.14490
F          1.41680       -0.89390        1.35340
N          3.30590        3.98350        2.95760
