18
TSA8_9_CF3_Br_CN
C          1.39540        1.44930        1.21800
C          1.71160        1.93220       -0.22700
C          2.14040        0.23950        1.87260
H          0.39320        1.01420        1.04830
Br         2.07540        0.50200       -1.49220
C          1.15500        2.68800        2.14170
C          0.53560        3.85690        1.35370
C         -0.24820        3.30200        0.17310
O          0.63400        2.70860       -0.78670
C          2.32200        3.21280        2.87850
H          0.43020        2.34500        2.90380
H          1.32020        4.50750        0.89570
H         -0.80060        4.13560       -0.30310
H         -1.02130        2.57900        0.52330
F          3.28130       -0.12490        1.18490
F          2.48610        0.50250        3.18590
F          1.28670       -0.85590        1.90130
N          3.20550        3.65890        3.48010
