18
TSA8_9_CCl3_OH_Cl
C          1.89210        0.03310       -0.07860
C          1.21910        0.14360       -1.24540
C          2.12650        1.11010        0.96610
H          2.32030       -0.93740        0.15960
O          1.10350       -0.93830       -2.05510
C         -0.23030        3.65590       -3.92680
C         -0.54950        2.89370       -2.87520
C         -0.10120        1.46580       -2.76640
O          0.65390        1.31580       -1.62350
Cl        -0.77520        5.32290       -4.01360
H          0.36750        3.26090       -4.74280
H         -1.14990        3.31230       -2.07240
H          0.50060        1.16920       -3.65460
H         -0.99930        0.81400       -2.70830
Cl         1.43500        2.72360        0.62530
Cl         1.43720        0.54730        2.50730
Cl         3.88160        1.31100        1.17950
H          1.48620       -1.80040       -1.83790
