21
TSA8_9_I_OMe_Me
C          2.63590        0.81060        1.69970
C          1.91970        2.12970        1.57880
I          1.30760       -0.72900        0.99530
H          3.52440        0.81640        1.03010
O          2.43080        3.09450        0.77290
C          3.09680        0.54410        3.15350
C          3.79740       -0.79280        3.24450
C          3.34640       -1.77660        4.02940
O          0.89130        2.32550        2.21320
C          4.06430        1.63200        3.64400
H          2.20320        0.55010        3.81770
H          4.69550       -0.96000        2.65620
H          2.45350       -1.64990        4.63370
H          3.87550       -2.72300        4.07070
C          1.86390        4.34140        0.61880
H          2.47610        4.93550       -0.09000
H          1.83390        4.86980        1.59590
H          0.83440        4.24630        0.21220
H          4.97160        1.66910        3.00280
H          4.37470        1.42160        4.69030
H          3.57800        2.62990        3.63040
