21
TSA8_9_I_OMe_Me
C          3.27680        0.88510        1.54140
C          1.73060        0.83450        1.35560
I          4.12170       -0.99700        0.91950
H          3.72180        1.63950        0.85760
O          1.21340        1.86340        0.53030
C          3.57530        1.23050        3.01190
C          2.90320        0.21080        3.95290
C          1.57370       -0.30220        3.36760
O          0.97360        0.68510        2.55820
C          5.06770        1.38350        3.31560
H          3.09780        2.21480        3.20980
H          3.53540       -0.67580        4.17840
H          0.89380       -0.59020        4.19550
H          1.73230       -1.23050        2.77200
C          1.26440        3.11440        1.18440
H          0.71920        3.85260        0.56130
H          2.30830        3.48080        1.27690
H          0.74850        3.09780        2.16950
H          5.51050        2.16120        2.65770
H          5.60870        0.42730        3.15610
H          5.20780        1.69640        4.37230
