18
TSA8_9_CBr3_F_CN
C          1.56840       -0.62710        1.53530
C          1.70560        0.84610        1.86910
C          2.22220       -1.10280        0.17650
H          0.50350       -0.66830        1.28520
F          2.58420        1.66660        1.24190
C          1.68400       -1.52350        2.82940
C          0.88070       -2.78950        2.63410
C         -0.44150       -2.70780        2.41490
O          0.92770        1.33830        2.67440
C          3.03770       -1.81630        3.33490
H          1.18290       -1.00080        3.67260
H          1.36120       -3.76430        2.64020
H         -0.94790       -1.74230        2.41880
H         -1.03290       -3.58820        2.21930
Br         1.11110       -0.44250       -1.28580
Br         4.03000       -0.48900       -0.17380
Br         2.26160       -3.03070       -0.09700
N          4.07140       -2.08730        3.79790
