18
TSA8_9_CBr3_F_CN
C          2.03740       -0.64720        1.59140
C          0.74050        0.23190        1.58810
C          2.22630       -1.48760        0.26090
H          2.87160        0.08880        1.56730
F          1.07150        1.48770        2.07310
C          2.04720       -1.36010        2.97100
C          0.80220       -2.24620        3.14770
C         -0.39510       -1.65630        2.38090
O         -0.34010       -0.25060        2.38740
C          3.28000       -2.04010        3.38300
H          1.92210       -0.54730        3.71920
H          0.92970       -3.30910        2.84990
H         -1.33390       -1.99870        2.86020
H         -0.44580       -2.01140        1.32930
Br         1.29010       -0.67080       -1.24790
Br         4.09730       -1.48880       -0.26180
Br         1.70570       -3.36180        0.25220
N          4.22780       -2.58850        3.75840
