22
TSA8_9_Me_CH2F_NO2
C          2.77150       -1.28780       -0.65340
C          1.43620       -1.58780       -0.00030
C          2.82210        0.20360       -1.04020
H          3.56330       -1.46890        0.10780
C          1.38740       -2.04360        1.43040
C          3.04210       -2.26620       -1.84460
C          2.08960       -2.02940       -2.99920
C          1.21890       -2.95870       -3.40550
O          0.39660       -1.45440       -0.63040
N          4.41030       -2.19960       -2.34340
H          2.89950       -3.29780       -1.44830
H          2.11760       -1.07920       -3.52370
H          1.15700       -3.92500       -2.91550
H          0.55750       -2.75100       -4.24020
H          2.02180        0.46000       -1.76540
H          3.79830        0.48140       -1.48300
H          2.67350        0.82900       -0.13410
F          0.08180       -2.26150        1.83440
H          1.84130       -1.26710        2.08110
H          1.96070       -2.98820        1.53800
O          5.21730       -1.46200       -1.86340
O          4.78900       -3.02620       -3.29540
