22
TSA8_9_Me_CH2F_NO2
C          2.80550       -1.28020       -0.74180
C          1.37470       -1.70180       -0.26100
C          2.72240        0.12440       -1.37130
H          3.49630       -1.19820        0.12750
C          1.36750       -2.09090        1.21570
C          3.33740       -2.37880       -1.70200
C          2.36040       -2.57170       -2.87490
C          0.90110       -2.46570       -2.39730
O          0.81170       -2.77030       -1.02210
N          4.69750       -2.18660       -2.18260
H          3.32870       -3.32720       -1.11860
H          2.51320       -1.85290       -3.70910
H          0.27360       -3.16400       -2.98850
H          0.47990       -1.45240       -2.58810
H          2.05220        0.15090       -2.25260
H          3.71620        0.49410       -1.68840
H          2.33020        0.84220       -0.61940
F          0.07800       -2.39370        1.61250
H          1.73740       -1.24320        1.83040
H          2.01840       -2.97540        1.38260
O          5.35610       -1.25360       -1.83400
O          5.24550       -3.10520       -2.94870
