24
TSA8_9_Et_OMe_H
C          3.01520       -1.38560        0.79350
C          1.91030       -1.48640        1.86460
C          2.40770       -0.91450       -0.55770
H          3.76560       -0.62100        1.09580
O          1.35850       -0.22650        2.14480
C          3.71850       -2.76880        0.72150
C          2.85250       -3.90500        1.29200
C          1.36830       -3.64360        0.99710
O          0.87870       -2.39380        1.49020
H          4.63520       -2.75390        1.35100
H          4.05150       -3.00520       -0.30600
H          2.94780       -3.91080        2.40140
H          0.78240       -4.46070        1.46690
H          1.20010       -3.69970       -0.09860
C          3.46200       -0.62610       -1.63060
H          1.86170        0.03920       -0.38760
H          1.68210       -1.65190       -0.95490
H          4.17310        0.14790       -1.27160
H          2.95910       -0.24480       -2.54410
H          4.02690       -1.53400       -1.91550
C          1.42290       -0.05140        3.53770
H          1.11190        0.98690        3.77540
H          2.46200       -0.17000        3.92310
H          0.71720       -0.73900        4.05410
