16
TSA8_9_I_Br_NH2
C          2.83900       -1.13880        1.43340
C          1.37580       -0.94120        1.13400
I          4.00380        0.07110        0.08350
H          3.02930       -0.74750        2.45590
Br         0.22590       -0.16960        2.45390
C          3.23180       -2.63640        1.42410
C          3.10440       -3.25810        0.04760
C          2.26200       -4.26410       -0.20310
O          0.90910       -1.26240        0.05240
N          4.59990       -2.80150        1.91880
H          2.55460       -3.15440        2.14200
H          3.71910       -2.87990       -0.76360
H          1.62820       -4.67540        0.57590
H          2.20340       -4.68290       -1.20260
H          5.28850       -2.37750        1.25590
H          4.81570       -3.82120        2.00980
