21
TSA8_9_CBr3_CHF2_OH
C          2.40830       -0.61100       -1.63180
C          1.08170       -1.35950       -1.63940
C          2.31980        0.71270       -0.80620
H          3.14330       -1.24900       -1.09070
C          0.97620       -2.71570       -0.99680
C          2.99000       -0.45600       -3.07180
C          2.14520        0.38730       -4.00010
C          2.61230        1.50980       -4.55630
O          0.09250       -0.86510       -2.15930
O          3.13930       -1.73260       -3.63850
H          4.00170       -0.00110       -2.96420
H          1.13440        0.07390       -4.23810
H          1.98000        2.08720       -5.22280
H          3.61880        1.86260       -4.35380
Br         1.79240        0.31620        1.02280
Br         4.05170        1.58730       -0.68430
Br         1.04440        2.01980       -1.48260
F         -0.31290       -3.20860       -1.10220
F          1.84540       -3.59430       -1.61570
H          1.24130       -2.63880        0.07810
H          3.82820       -1.65680       -4.35020
