21
TSA8_9_CBr3_CHF2_OH
C          1.65660       -0.05460       -0.05110
C          1.43310       -0.81500       -1.15120
C          1.84540        1.44730        0.01800
H          1.69790       -0.56490        0.90780
C          1.21690       -2.29740       -1.00360
C          3.73500       -0.44470       -5.14440
C          2.72640       -0.70270       -4.30200
C          2.48860        0.15790       -3.09600
O          1.38500       -0.31520       -2.41250
O          3.95850       -1.22120       -6.22820
H          4.39250        0.39960       -4.96230
H          2.07100       -1.54950       -4.48920
H          2.30240        1.19930       -3.42840
H          3.39890        0.13570       -2.45600
Br         1.11750        2.05500        1.70920
Br         3.73350        1.87150        0.01740
Br         0.91090        2.48310       -1.33570
F         -0.03040       -2.62890       -1.49750
F          2.18370       -2.97410       -1.72390
H          1.27400       -2.62730        0.05570
H          3.40940       -1.99060       -6.43770
