21
TSA8_9_CBr3_CHF2_OH
C          2.85830       -0.45680       -1.43540
C          1.30200       -0.54080       -1.52200
C          3.28210        0.54120       -0.32320
H          3.20580       -1.47160       -1.13560
C          0.65570       -1.92840       -1.38230
C          3.48600       -0.11170       -2.81410
C          2.60550       -0.67770       -3.91650
C          1.23630        0.03420       -3.83860
O          0.71730        0.26530       -2.52960
O          4.78430       -0.63940       -2.89430
H          3.51760        0.98900       -2.96150
H          2.52570       -1.77560       -3.80200
H          0.49280       -0.49430       -4.46760
H          1.39340        1.04140       -4.28190
Br         2.54900       -0.00210        1.39230
Br         5.21090        0.61650       -0.10550
Br         2.64450        2.34950       -0.67690
F         -0.70920       -1.78570       -1.22090
F          0.89020       -2.73210       -2.48000
H          1.06100       -2.43560       -0.48160
H          5.17230       -0.32180       -3.75090
