19
TSA8_9_NO2_CF3_H
C          2.12260        0.19020       -0.17960
C          1.74350       -0.49440       -1.31070
N          1.82720        1.52550        0.24170
H          2.74390       -0.35310        0.52590
C          2.18990       -1.93620       -1.47290
C          1.36310        3.33320       -3.58410
C          1.61890        2.11650       -3.09850
C          0.50380        1.14890       -2.80910
O          0.99810       -0.06300       -2.37720
H          2.17860        4.01890       -3.78870
H          0.34370        3.65210       -3.78040
H          2.64920        1.82640       -2.91290
H         -0.03870        0.96550       -3.76050
H         -0.25670        1.53900       -2.10860
O          2.30970        1.91690        1.26070
O          0.97420        2.30250       -0.37490
F          2.94200       -2.04410       -2.62840
F          2.95020       -2.40760       -0.41530
F          1.07180       -2.74040       -1.59410
