22
TSA8_9_NH2_CCl3_CHF2
C          3.17120        1.53060        0.35320
C          1.67820        1.81540       -0.03550
N          3.27600        0.22320        1.00590
H          3.81540        1.50530       -0.55300
C          1.44570        1.99320       -1.54590
C          3.68290        2.66730        1.26840
C          2.74400        2.86420        2.47470
C          1.27430        2.67430        2.06240
O          1.12180        2.91580        0.68000
C          5.14860        2.51930        1.70150
H          3.61460        3.59980        0.66450
H          2.95630        2.19260        3.33510
H          0.63480        3.36450        2.64990
H          0.91620        1.64810        2.31400
H          2.97060       -0.52260        0.34000
H          2.66790        0.17030        1.85340
Cl         2.32880        3.41520       -2.16690
Cl         1.96630        0.54150       -2.44300
Cl        -0.29270        2.22660       -1.86200
F          5.32940        1.38810        2.47770
F          5.96790        2.44280        0.58910
H          5.44900        3.40810        2.29630
