21
TSA8_9_OH_Me_CH2F
C          2.96740       -0.48130       -1.63670
C          1.46360       -0.54020       -1.47320
O          3.55820       -0.03800       -0.44140
H          3.33920       -1.50640       -1.87490
C          0.73950       -1.84170       -1.64260
C          3.38750        0.43340       -2.81490
C          2.99830        1.87580       -2.56570
C          2.16060        2.53420       -3.37260
O          0.83320        0.46760       -1.19060
C          4.90320        0.35350       -3.04810
H          2.89040        0.05270       -3.73650
H          3.41340        2.39430       -1.70590
H          1.72370        2.05430       -4.24270
H          1.90640        3.56780       -3.16160
H          3.51680       -0.79690        0.19770
H          0.90820       -2.23060       -2.66860
H         -0.35230       -1.70840       -1.48500
H          1.12040       -2.57840       -0.90480
F          5.25910        1.12320       -4.14230
H          5.20180       -0.69740       -3.24960
H          5.46080        0.71470       -2.15730
