21
TSA8_9_OH_Me_CH2F
C          1.87100       -0.10580       -0.23590
C          1.38490       -0.41150       -1.45940
O          2.27830        1.13380        0.09770
H          1.92800       -0.88010        0.52770
C          0.92740       -1.81480       -1.74270
C          3.80160        0.59660       -3.92730
C          3.41120        1.38550       -2.91380
C          1.95100        1.66680       -2.68690
O          1.26810        0.48060       -2.48980
C          5.24530        0.28800       -4.17350
H          3.05840        0.16120       -4.59010
H          4.14750        1.82410       -2.24570
H          1.54660        2.16000       -3.59510
H          1.79440        2.37020       -1.84560
H          2.59980        1.32570        0.99000
H          1.52650       -2.22590       -2.58230
H         -0.14290       -1.80330       -2.03720
H          1.04730       -2.48640       -0.86720
F          5.94340        1.45330       -4.42620
H          5.33600       -0.38490       -5.05170
H          5.68000       -0.22140       -3.28680
