21
TSA8_9_OH_Me_CH2F
C          2.99780       -0.06970       -1.48310
C          1.43110       -0.12030       -1.49510
O          3.44330        0.95680       -0.63340
H          3.42060       -1.03410       -1.11670
C          0.93750       -1.54840       -1.72790
C          3.47150        0.20570       -2.92070
C          2.89910        1.55240       -3.41300
C          1.56900        1.88610       -2.71370
O          0.81830        0.71520       -2.48320
C          4.99510        0.13930       -3.08770
H          3.03960       -0.59470       -3.56050
H          3.57840        2.41400       -3.23390
H          0.99190        2.59310       -3.34420
H          1.74020        2.41260       -1.74720
H          3.19290        0.68930        0.28950
H          1.26120       -1.92320       -2.72160
H         -0.17160       -1.56940       -1.68310
H          1.32920       -2.22240       -0.93730
F          5.62500        1.11070       -2.32840
H          5.26260        0.28830       -4.15530
H          5.36580       -0.85920       -2.77220
