23
TSA8_9_CBr3_CCl3_CBr3
C          2.12330       -0.21320        0.13660
C          2.01320        0.29670        1.40550
C          1.80630       -1.53330       -0.55620
H          2.56740        0.47280       -0.58140
C          2.59360        1.68640        1.64400
C          0.18780       -2.50230        4.70500
C          0.75710       -2.27460        3.50960
C          0.35690       -1.11290        2.63900
O          1.44270       -0.28000        2.50150
C          0.62700       -3.64490        5.58310
H         -0.60060       -1.84310        5.05760
H          1.55150       -2.93140        3.17470
H         -0.44720       -0.53530        3.14380
H         -0.06790       -1.41200        1.66510
Br         0.37310       -1.23690       -1.82160
Br         3.38130       -1.99520       -1.58800
Br         1.44610       -3.15450        0.43410
Cl         2.37880        2.22450        3.33780
Cl         4.34660        1.69130        1.30620
Cl         1.79250        2.89410        0.60050
Br        -0.39860       -3.64930        7.22750
Br         0.35350       -5.34340        4.68790
Br         2.50400       -3.46040        6.04380
