19
TSA8_9_CBr3_NO2_F
C          1.15920       -1.45110       -0.09570
C          1.38660       -0.75540        1.27200
C          2.13740       -1.02070       -1.22430
H          0.15520       -1.08500       -0.40730
N          2.65890       -1.05050        1.90110
C          1.05260       -2.97910        0.11170
C          0.39720       -3.29620        1.46020
C         -0.44590       -2.13440        2.00070
O          0.30490       -0.92990        2.19170
F          0.31830       -3.54150       -0.91830
H          2.05070       -3.46350        0.14330
H         -0.10440       -4.28830        1.45840
H         -0.84120       -2.44860        2.98800
H         -1.31090       -1.94230        1.32960
Br         2.17360        0.91600       -1.37760
Br         3.96270       -1.63600       -0.95360
Br         1.55070       -1.69370       -2.95030
O          2.76480       -2.00390        2.61700
O          3.58870       -0.12460        1.92510
