20
TSA8_9_Br_F_Et
C          3.15730        0.54540        1.87990
C          1.70980        0.44830        1.45200
Br         4.21320       -0.31120        0.48140
H          3.40510        1.62820        1.89260
F          1.33560        0.97020        0.25390
C          3.40890       -0.02520        3.31080
C          3.20770       -1.52720        3.36130
C          2.25960       -2.09360        4.11400
O          0.86320       -0.07350        2.16170
C          4.77400        0.37200        3.93420
H          2.66150        0.47130        3.97230
H          3.85340       -2.17270        2.77370
H          1.58970       -1.49370        4.72180
H          2.14930       -3.17290        4.12360
C          6.03280       -0.22050        3.29580
H          4.76450        0.04290        4.99680
H          4.86490        1.48010        3.93180
H          6.00270       -1.32930        3.30980
H          6.91930        0.10410        3.88120
H          6.17820        0.14550        2.26420
