20
TSA8_9_Cl_CHF2_Me
C          2.02940        1.71290       -1.44270
C          0.80460        1.37680       -2.26110
Cl         1.69720        1.25970        0.25710
H          2.89050        1.10090       -1.79160
C          0.87900        0.35700       -3.36250
C          2.39880        3.21420       -1.54590
C          3.60370        3.51450       -0.68180
C          3.54770        4.38310        0.33290
O         -0.25800        1.93080       -2.01740
C          2.72310        3.62060       -2.99020
H          1.52870        3.81880       -1.20360
H          4.54340        3.00980       -0.89040
H          2.62830        4.90720        0.57470
H          4.43160        4.57410        0.93280
F         -0.35770        0.19490       -3.96270
F          1.79310        0.76220       -4.31700
H          1.20140       -0.61760       -2.93990
H          3.58330        3.03420       -3.38010
H          2.97910        4.70110       -3.03300
H          1.84780        3.45490       -3.65290
