22
TSA8_9_NH2_CF3_CCl3
C          2.93880        1.41170        0.45620
C          1.50250        1.52750       -0.15900
N          3.03700        0.18490        1.24970
H          3.69720        1.34710       -0.35440
C          1.50820        1.53850       -1.68850
C          3.23660        2.67910        1.30280
C          2.10880        2.91270        2.33230
C          0.73240        2.57140        1.73680
O          0.77750        2.65120        0.32850
C          4.65230        2.75900        1.93670
H          3.17070        3.52770        0.58400
H          2.22810        2.35350        3.28500
H         -0.02600        3.27360        2.14000
H          0.39960        1.55480        2.05350
H          2.31380        0.16840        2.00380
H          2.88210       -0.64100        0.62650
F          2.19300        2.64700       -2.15400
F          2.11480        0.39130       -2.16690
F          0.20780        1.58120       -2.15570
Cl         4.87170        4.34240        2.73330
Cl         4.94540        1.49180        3.16220
Cl         5.91520        2.62610        0.68200
