21
TSA8_9_Me_F_OMe
C          2.66580       -0.09190       -1.58100
C          1.13240       -0.17050       -1.68240
C          3.05380        0.99040       -0.55610
H          3.07290       -1.03920       -1.16240
F          0.72400       -1.25570       -2.43920
C          3.28360        0.15770       -2.98880
C          2.24770        0.78270       -3.95210
C          1.26860        1.68950       -3.20130
O          0.53300        1.03150       -2.16590
O          3.71520       -1.08460       -3.52050
H          4.15330        0.84120       -2.83940
H          1.63370       -0.02100       -4.41520
H          0.54390        2.08150       -3.94530
H          1.81080        2.56230       -2.78530
H          2.71100        2.00150       -0.84580
H          4.15780        1.02030       -0.43690
H          2.61110        0.74650        0.43270
C          4.65480       -0.88720       -4.55680
H          5.53780       -0.30540       -4.21110
H          4.17890       -0.41760       -5.44480
H          5.03460       -1.87950       -4.87490
