17
TSA8_9_CN_NO2_Cl
C          2.63670        0.96640       -1.04720
C          1.78520        0.25960       -2.10070
C          2.01290        0.95330        0.30390
H          3.57080        0.37430       -0.99840
N          1.51240       -1.07070       -2.00840
C          3.00960        2.42640       -1.47300
C          2.04470        3.42700       -0.88600
C          0.78690        3.52840       -1.31220
O          1.41390        0.87090       -3.09490
Cl         4.66510        2.81970       -0.93170
H          3.07750        2.53870       -2.57980
H          2.37060        4.02290       -0.03740
H          0.43510        2.94330       -2.15190
H          0.10160        4.19930       -0.81020
N          1.52850        1.01090        1.35620
O          0.95680       -1.63070       -2.90590
O          1.91000       -1.76880       -0.96640
