21
TSA8_9_NH2_CBr3_NH2
C          2.80470       -1.40930       -0.54280
C          1.55590       -1.48110        0.32300
N          2.98110       -0.05870       -1.08700
H          3.68450       -1.63280        0.09990
C          1.65690       -1.79460        1.80110
C          2.79300       -2.48060       -1.66540
C          1.69990       -2.24620       -2.69200
C          0.71720       -3.12700       -2.90160
O          0.46140       -1.27700       -0.18230
N          4.09530       -2.51630       -2.33290
H          2.64350       -3.46850       -1.17280
H          1.71590       -1.33710       -3.28600
H          0.65830       -4.05070       -2.33570
H         -0.04160       -2.92000       -3.64940
H          2.13390        0.23680       -1.62380
H          3.10770        0.61620       -0.29800
Br         2.71180       -0.43580        2.69650
Br        -0.08730       -1.85040        2.65900
Br         2.49960       -3.52120        2.06760
H          4.26970       -1.62050       -2.84390
H          4.11110       -3.30190       -3.02380
