23
TSA8_9_Et_Br_CBr3
C          1.83670        0.30700        0.02450
C          1.36830        1.46330        0.56040
C          1.83370       -1.10270        0.56700
H          2.27750        0.38640       -0.96600
Br         1.56100        3.03210       -0.51990
C          2.03280        0.91920        4.84840
C          1.82960        0.55560        3.57110
C          0.53490        0.85630        2.85780
O          0.74950        1.66740        1.76320
C          3.32140        0.61540        5.56680
H          1.24830        1.44490        5.38620
H          2.61590        0.03150        3.04270
H         -0.14420        1.40440        3.54520
H         -0.02030       -0.05590        2.57100
C          3.25930       -1.64570        0.61870
H          1.23930       -1.73760       -0.12380
H          1.39260       -1.21320        1.56130
H          3.71580       -1.63050       -0.39460
H          3.24690       -2.69450        0.98320
H          3.88490       -1.03640        1.30440
Br         3.23740        1.28370        7.38420
Br         3.62450       -1.29970        5.63830
Br         4.81810        1.46700        4.67360
