23
TSA8_9_Et_Br_CBr3
C          2.29920        0.65610        1.71880
C          1.05040        1.41400        1.14380
C          2.25010       -0.81070        1.21530
H          3.19220        1.12000        1.24740
Br         1.57400        3.00650        0.16340
C          2.32070        0.88470        3.26920
C          0.97310        0.45360        3.89880
C         -0.19810        0.69380        2.94190
O          0.08310        1.79490        2.11550
C          3.52560        0.40310        4.12750
H          2.35400        1.99580        3.34500
H          0.92680       -0.60760        4.21770
H         -1.12160        0.87660        3.52920
H         -0.40710       -0.20930        2.32100
C          3.62640       -1.46100        1.04620
H          1.83780       -0.81080        0.18110
H          1.57350       -1.42870        1.84100
H          4.23340       -0.87540        0.32180
H          3.50180       -2.48710        0.64280
H          4.20160       -1.52710        1.97740
Br         3.43680        1.26360        5.86940
Br         3.55650       -1.50870        4.50920
Br         5.21640        0.94370        3.34060
