17
TSA8_9_CCl3_Cl_H
C          1.72300       -1.02490       -1.52740
C          1.35000       -1.54100       -0.15040
C          1.62130        0.53010       -1.60610
H          2.79910       -1.26990       -1.67250
Cl         2.54840       -2.38270        0.82080
C          0.99390       -1.77770       -2.68220
C         -0.50460       -1.62340       -2.77760
C         -1.35510       -2.22070       -1.93840
O          0.24490       -1.34220        0.32590
H          1.41740       -1.40380       -3.63730
H          1.23640       -2.86240       -2.64390
H         -0.91240       -1.03710       -3.59590
H         -1.00430       -2.85810       -1.13470
H         -2.42420       -2.09230       -2.06980
Cl         2.21180        1.13700       -3.17880
Cl        -0.03980        1.14830       -1.36870
Cl         2.65720        1.27380       -0.35330
