17
TSA8_9_CCl3_Cl_H
C          1.82790       -0.02240       -0.00340
C          1.14270       -1.10860       -0.40870
C          2.14670        1.22840       -0.80250
H          2.19740       -0.02480        1.01900
Cl         0.91100       -2.41850        0.75710
C         -0.18620       -2.91130       -4.49280
C         -0.50190       -2.02130       -3.54720
C         -0.15850       -2.24220       -2.10310
O          0.63760       -1.20600       -1.66420
H         -0.45040       -2.72030       -5.52770
H          0.33320       -3.83310       -4.24790
H         -1.02400       -1.11180       -3.82890
H          0.37370       -3.20990       -1.96750
H         -1.10000       -2.26230       -1.51300
Cl         1.55200        1.27480       -2.48810
Cl         1.44770        2.62480        0.05080
Cl         3.91400        1.42870       -0.84870
