17
TSA8_9_CCl3_Cl_H
C          1.63950       -0.92570       -1.47600
C          0.61090       -1.33660       -0.39970
C          1.61470        0.61330       -1.73540
H          2.66240       -1.13010       -1.08830
Cl         1.00220       -2.88230        0.42360
C          1.43620       -1.83000       -2.71450
C         -0.02440       -1.86210       -3.15780
C         -0.90590       -2.21370       -1.95260
O         -0.72620       -1.29810       -0.88120
H          2.10320       -1.54640       -3.55450
H          1.70460       -2.87090       -2.42900
H         -0.33240       -0.89720       -3.59960
H         -0.72090       -3.25850       -1.62140
H         -1.96700       -2.17710       -2.27600
Cl         0.04380        1.28650       -2.25680
Cl         2.05420        1.46520       -0.22800
Cl         2.83970        1.06130       -2.95410
