19
TSA8_9_NH2_I_CF3
C          2.02760       -0.13670        0.12740
C          1.19330       -0.74550        0.98120
N          2.48070       -0.76840       -1.05950
H          2.36640        0.87210        0.34300
I          0.58540        0.32670        2.71730
C         -0.15720       -5.16320        1.64010
C         -0.38740       -4.04670        0.92870
C         -0.15460       -2.68190        1.50790
O          0.75900       -2.00740        0.72720
C         -0.38160       -6.54760        1.09370
H          0.20550       -5.08470        2.66110
H         -0.75510       -4.10700       -0.09120
H          0.22470       -2.75280        2.55190
H         -1.11860       -2.13030        1.51240
H          3.11700       -0.26330       -1.69240
H          2.18360       -1.72200       -1.31220
F         -0.83340       -6.52330       -0.21470
F          0.80790       -7.24950        1.14200
F         -1.31790       -7.19540        1.87720
