22
TSA8_9_NO2_Et_I
C          1.71460        0.07520        0.13410
C          1.35580       -0.35930        1.36550
N          1.92320       -0.78010       -0.98760
H          1.84810        1.14290       -0.02220
C          1.10640        0.66000        2.46870
C          3.15500       -4.64680        2.17940
C          2.32410       -3.74400        1.65300
C          2.01990       -2.45970        2.36830
O          1.16180       -1.68400        1.60870
I          3.55610       -6.44870        1.15520
H          3.63740       -4.46910        3.13570
H          1.86080       -3.95480        0.69590
H          2.97300       -1.91800        2.56440
H          1.53190       -2.70880        3.33400
O          2.24920       -0.30120       -2.03160
O          1.72320       -2.07690       -0.91690
C          1.98860        0.46990        3.69800
H          0.04270        0.58970        2.78100
H          1.27550        1.69330        2.09260
H          1.77860       -0.49990        4.19030
H          1.76510        1.27050        4.43480
H          3.06130        0.53010        3.41920
