22
TSA8_9_NO2_Et_I
C          2.61170       -1.19910        0.61060
C          1.38490       -0.64890        1.36930
N          2.20740       -1.58120       -0.73610
H          3.38360       -0.40070        0.52170
C          1.55590        0.56560        2.30680
C          3.22580       -2.37720        1.39180
C          2.15270       -3.39400        1.76840
C          1.03340       -2.67540        2.52920
O          0.43710       -1.63210        1.77140
I          4.83260       -3.31350        0.32720
H          3.66010       -1.99770        2.33840
H          1.74510       -3.91000        0.87730
H          1.40400       -2.30930        3.50190
H          0.25020       -3.42470        2.76660
O          2.71260       -1.04930       -1.67820
O          1.24100       -2.45190       -0.93730
C          2.35190        0.33790        3.58890
H          0.54810        0.94840        2.57390
H          2.07090        1.36100        1.72650
H          1.83970       -0.36770        4.26740
H          2.43540        1.30200        4.13360
H          3.37810       -0.01180        3.36230
