19
TSA8_9_Cl_NO2_CHF2
C          2.17390        1.42230        1.48510
C          1.05210        2.39800        1.17900
Cl         1.56960       -0.23150        1.15890
H          3.04160        1.59070        0.81250
N          1.17740        3.35660        0.21870
C          2.65440        1.55110        2.95360
C          3.73450        0.52930        3.24080
C          3.58450       -0.41570        4.17450
O          0.01100        2.31360        1.81820
C          3.20300        2.95990        3.25200
H          1.78320        1.37460        3.62480
H          4.65980        0.56240        2.67210
H          2.67580       -0.48450        4.76470
H          4.37940       -1.13210        4.35340
O          0.27600        4.10990        0.00190
O          2.28670        3.47090       -0.48040
F          3.59300        3.04560        4.57730
F          4.28910        3.24730        2.44210
H          2.41860        3.72560        3.07720
