29
TSA8_9_CF3_Et_Et
C          2.78560       -1.81320       -0.80020
C          1.55830       -2.32040       -0.05830
C          2.58330       -0.33930       -1.21770
H          3.63940       -1.80060       -0.09130
C          1.67790       -2.75080        1.38520
C          3.19660       -2.72370       -2.00820
C          2.11220       -2.80110       -3.06580
C          2.29760       -2.34470       -4.30900
O          0.47360       -2.35750       -0.62260
C          3.56240       -4.16790       -1.58730
H          4.11060       -2.28040       -2.46450
H          1.15460       -3.25010       -2.82230
H          1.49790       -2.42460       -5.03830
H          3.23700       -1.89150       -4.60850
F          3.73130        0.14360       -1.82130
F          1.52380       -0.20140       -2.09720
F          2.32660        0.43010       -0.09580
C          0.34600       -3.20070        1.98740
H          2.06650       -1.89830        1.98210
H          2.39990       -3.59160        1.45140
H         -0.38960       -2.36800        1.95960
H          0.49740       -3.50380        3.04460
H         -0.06000       -4.06770        1.42360
C          4.78680       -4.24890       -0.67170
H          3.81020       -4.74710       -2.50470
H          2.69700       -4.66180       -1.09440
H          5.66590       -3.78160       -1.16490
H          5.02320       -5.31450       -0.46830
H          4.60620       -3.75390        0.30220
