17
TSA8_9_Cl_Me_I
C          2.95330        0.72550       -1.14140
C          1.53690        0.40900       -1.56160
Cl         3.11420        0.43430        0.61780
H          3.62100        0.00290       -1.65930
C          1.27740       -0.65560       -2.58560
C          3.46100        2.13810       -1.53820
C          2.77850        3.30150       -0.85200
C          1.54040        3.70370       -1.15210
O          0.59080        0.98130       -1.04380
I          5.56870        2.25550       -1.11260
H          3.38730        2.27330       -2.63930
H          3.32960        3.87300       -0.11100
H          0.95300        3.21140       -1.91780
H          1.11200        4.55970       -0.64080
H          1.76870       -0.37940       -3.54200
H          0.18710       -0.77340       -2.76420
H          1.68770       -1.62370       -2.22940
