16
TSA8_9_Br_NO2_H
C          1.74590       -0.09700       -0.17410
C          1.41900       -0.99340       -1.13810
Br         2.25390        1.73420       -0.45980
H          1.68330       -0.38230        0.87060
N          0.97420       -2.29880       -0.76870
C          3.88200       -0.32500       -5.11010
C          2.93430       -0.79310       -4.29500
C          2.43630        0.01910       -3.13660
O          1.46200       -0.69880       -2.46930
H          4.22890       -0.92990       -5.94170
H          4.31710        0.65740       -4.95420
H          2.52100       -1.78150       -4.47770
H          1.99780        0.96660       -3.51640
H          3.30320        0.23680       -2.47770
O          0.67270       -3.08340       -1.61620
O          0.89770       -2.66050        0.49550
