16
TSA8_9_Br_NO2_H
C          3.11830       -0.54860       -1.44080
C          1.59990       -0.80620       -1.37530
Br         3.47640        1.28320       -0.87470
H          3.67070       -1.17160       -0.70520
N          1.27000       -2.21440       -1.42530
C          3.65220       -0.81340       -2.85640
C          2.64000       -0.42640       -3.94770
C          1.53690        0.49190       -3.40670
O          0.80960       -0.07240       -2.31570
H          3.85620       -1.89900       -2.98310
H          4.62130       -0.28890       -2.98970
H          2.13160       -1.34190       -4.31930
H          0.82390        0.67450       -4.23820
H          1.94630        1.48210       -3.12800
O          1.41250       -2.84560       -2.42750
O          0.75870       -2.79370       -0.36160
