20
TSA8_9_I_CH2F_Me
C          2.07070        2.20310       -0.01320
C          0.86670        2.44490       -0.89120
I          1.61860        0.54010        1.27580
H          2.93710        1.90510       -0.64490
C          0.97810        2.30480       -2.38180
C          2.45030        3.46420        0.80180
C          3.65010        3.17800        1.67630
C          3.59650        3.27770        3.00830
O         -0.20240        2.75640       -0.38610
C          2.79160        4.64710       -0.11670
H          1.58040        3.75580        1.43290
H          4.58600        2.88350        1.20910
H          2.68140        3.56920        3.51450
H          4.47850        3.06490        3.60360
F         -0.23530        2.56910       -2.99250
H          1.29100        1.27010       -2.63410
H          1.73720        3.01820       -2.76520
H          3.65080        4.39730       -0.77630
H          3.05590        5.53770        0.49310
H          1.92220        4.91860       -0.75140
