20
TSA8_9_I_CH2F_Me
C          1.84360        0.17930       -0.06170
C          1.48760        1.47410       -0.16010
I          2.04110       -0.86400        1.77270
H          2.01890       -0.40870       -0.95770
C          1.31260        2.11170       -1.51140
C          2.57170        4.85530        0.56520
C          3.09650        3.72810        1.06480
C          2.23970        2.71840        1.77730
O          1.24880        2.22920        0.94330
C          3.42890        5.85910       -0.14050
H          1.50800        5.05290        0.66860
H          4.16100        3.53350        0.96380
H          1.76310        3.21020        2.65160
H          2.87780        1.89440        2.15350
F          0.01680        2.57520       -1.63840
H          1.51850        1.39890       -2.33860
H          2.01310        2.96620       -1.61010
H          3.90440        5.39260       -1.02900
H          4.21720        6.23350        0.54620
H          2.80600        6.71540       -0.47370
