22
TSA8_9_CN_CH2F_OMe
C          2.80260        1.31090        0.61710
C          1.62050        1.73300       -0.25800
C          2.39680       -0.00330        1.16530
H          3.69620        1.15220       -0.02230
C          1.62900        1.56760       -1.75090
C          3.08700        2.35580        1.76450
C          2.26940        2.01480        3.00820
C          1.01710        2.45730        3.14180
O          0.57590        2.09850        0.25910
O          4.45160        2.74150        1.96710
H          2.67640        3.31240        1.37690
H          2.60670        1.25140        3.70270
H          0.59370        3.15180        2.42640
H          0.38630        2.08080        3.93680
N          2.01420       -0.99670        1.63780
F          2.44990        2.49840       -2.35520
H          0.59540        1.69940       -2.14330
H          1.95080        0.53710       -2.00870
C          5.27270        1.89410        2.74620
H          6.03040        2.54040        3.25040
H          5.84180        1.20060        2.09510
H          4.76390        1.36790        3.57240
