22
TSA8_9_CN_CH2F_OMe
C          1.69400        0.05640       -0.03830
C          1.49500        1.36340       -0.38130
C          1.81650       -0.48060        1.28230
H          1.73990       -0.67310       -0.84060
C          1.45850        1.69900       -1.84360
C          3.40710        3.40640        2.86060
C          2.77630        2.38050        2.26810
C          1.34000        2.47480        1.84170
O          1.26730        2.40530        0.46900
O          4.70670        3.35290        3.26190
H          2.86590        4.33170        3.02870
H          3.30640        1.46220        2.06520
H          0.90380        3.45070        2.15480
H          0.71200        1.69010        2.31250
N          1.91670       -0.93060        2.33790
F          2.14870        2.87920       -2.06430
H          0.40490        1.82820       -2.15310
H          1.94510        0.90470       -2.44990
C          5.53310        2.24680        3.21270
H          6.52490        2.52570        3.62200
H          5.66810        1.90100        2.16530
H          5.11550        1.42550        3.83520
