17
TSA8_9_CH2F_Br_F
C          1.85160        0.00280        0.03860
C          1.16610       -0.40700        1.11600
C          2.11920       -0.87060       -1.15590
H          2.23310        1.01940        0.01140
Br         0.89930        0.84780        2.55360
C         -0.12420       -4.54640        2.82070
C         -0.44930       -3.58250        1.95230
C         -0.11690       -2.14130        2.20610
O          0.67490       -1.67150        1.18100
F         -0.44490       -5.83810        2.55230
H          0.39550       -4.31450        3.74550
H         -0.97090       -3.84540        1.03700
H          0.41520       -2.02410        3.17590
H         -1.06330       -1.55920        2.24150
F          3.48350       -0.98630       -1.34080
H          1.67090       -0.39860       -2.05490
H          1.68730       -1.88700       -1.04430
