20
TSA8_9_CCl3_CCl3_Cl
C          2.11430       -0.19330       -0.17680
C          1.62960       -0.99950        0.80430
C          1.65760       -0.08150       -1.62120
H          2.93740        0.47200        0.05110
C          2.17640       -0.95720        2.23440
C          0.26560       -5.40700        1.18130
C          0.21250       -4.07670        1.29380
C          0.80950       -3.19840        0.23520
O          0.61340       -1.86580        0.55280
Cl        -0.42310       -6.43590        2.42560
H          0.73690       -5.87080        0.31910
H         -0.26140       -3.62810        2.16260
H          0.31250       -3.41780       -0.73210
H          1.89270       -3.43080        0.12990
Cl         0.22630       -1.02900       -2.10810
Cl         1.27290        1.62610       -1.94310
Cl         3.01110       -0.55630       -2.67440
Cl         2.84890       -2.53970        2.69940
Cl         3.46190        0.25450        2.53660
Cl         0.83300       -0.57530        3.33890
