20
TSA8_9_CCl3_CCl3_Cl
C          2.26420       -2.05410        0.23350
C          1.10890       -1.22520        0.88220
C          2.82750       -1.31010       -1.02040
H          3.06520       -2.13280        1.00000
C          1.23270       -0.68190        2.33420
C          1.77590       -3.49500       -0.11050
C          0.77120       -3.94370        0.92980
C         -0.45930       -3.01680        0.84190
O         -0.19460       -1.65140        0.52750
Cl         3.11610       -4.67650       -0.16450
H          1.24430       -3.52060       -1.08490
H          1.25510       -3.92020        1.92330
H         -1.07920       -3.10170        1.75840
H         -1.06520       -3.40630       -0.00330
Cl         1.57570       -1.10720       -2.28290
Cl         3.41150        0.32210       -0.60190
Cl         4.21590       -2.15820       -1.75240
Cl         1.09450       -1.93330        3.59280
Cl         2.78120        0.16120        2.59240
Cl        -0.06270        0.50770        2.61430
