20
TSA8_9_Br_CF3_CCl3
C          1.79420        0.07530       -0.15970
C          1.50150        0.17370       -1.47900
Br         2.15810        1.54540        1.02280
H          1.79040       -0.89320        0.32830
C          1.14800       -1.05450       -2.28470
C          2.76180        3.87670       -4.02020
C          2.91930        2.68840       -3.41510
C          2.36540        2.40440       -2.05070
O          1.47610        1.35330       -2.15940
C          3.31320        4.13840       -5.39780
H          2.22120        4.66910       -3.50950
H          3.45890        1.89200       -3.92010
H          1.83580        3.28900       -1.63660
H          3.22600        2.14960       -1.39810
F         -0.12190       -0.90230       -2.80980
F          2.04850       -1.18260       -3.32580
F          1.17840       -2.21520       -1.52970
Cl         2.93100        5.80610       -5.89820
Cl         5.08500        3.93910       -5.41050
Cl         2.58700        3.01710       -6.57950
