27
TSA8_9_CBr3_OMe_Et
C          1.61400        0.07870       -0.12410
C          1.68580       -0.89800        0.81260
C          1.63800       -0.05740       -1.63640
H          1.45930        1.08510        0.25840
O          1.55330       -0.52070        2.11060
C          3.48680       -5.16040        0.54700
C          3.45950       -3.84720        0.81150
C          2.84150       -2.84600       -0.11760
O          1.79740       -2.22610        0.53330
C          4.12880       -6.13640        1.49620
H          3.03390       -5.54300       -0.36440
H          3.89970       -3.47410        1.73160
H          2.45790       -3.32900       -1.04190
H          3.64340       -2.13090       -0.36830
Br         1.12220        1.64510       -2.41200
Br         3.39540       -0.43110       -2.36470
Br         0.35620       -1.37310       -2.25930
C          1.56340       -1.40680        3.16640
H          1.43250       -0.84690        4.11460
H          2.53230       -1.94810        3.20370
H          0.73050       -2.13550        3.06310
C          5.63060       -5.88440        1.62610
H          3.97910       -7.16730        1.11060
H          3.64390       -6.05860        2.49320
H          6.12120       -5.98710        0.63420
H          6.07440       -6.62810        2.32090
H          5.83230       -4.86860        2.02600
