23
TSA8_9_CH2F_CH2F_CBr3
C          2.83330        0.59030       -1.48700
C          1.29770        0.57460       -1.70780
C          3.07790        0.72510        0.02880
H          3.24780       -0.40260       -1.76610
C          0.79490       -0.11790       -2.97820
C          3.54350        1.74290       -2.27790
C          2.51420        2.70750       -2.88760
C          1.38980        2.97380       -1.87910
O          0.64620        1.82190       -1.48260
C          4.58550        1.25860       -3.32430
H          4.12080        2.35480       -1.54900
H          2.07250        2.31890       -3.82310
H          0.68820        3.69610       -2.34540
H          1.81730        3.45650       -0.97490
F          4.43020        0.65350        0.31330
H          2.56880       -0.10290        0.56770
H          2.68130        1.68660        0.41680
F         -0.57880       -0.25660       -2.90850
H          1.24420       -1.13020       -3.04920
H          1.03930        0.43980       -3.89750
Br         5.45560        2.77860       -4.16830
Br         5.99110        0.21930       -2.47600
Br         3.81270        0.16310       -4.73080
