22
TSA8_9_NH2_I_Et
C          1.68240        0.06730        0.16630
C          1.37320        0.05380        1.48770
N          2.17650       -1.01460       -0.60890
H          1.52380        1.00160       -0.36360
I          0.61940        1.85660        2.29450
C          4.46690       -2.40280        3.14990
C          3.61440       -1.98400        2.20100
C          2.12510       -2.19070        2.32220
O          1.47950       -0.97260        2.38410
C          5.95040       -2.17090        3.04410
H          4.08940       -2.90870        4.03450
H          4.00340       -1.46680        1.33060
H          1.89790       -2.73350        3.26460
H          1.71030       -2.82380        1.51660
H          2.36270       -0.85660       -1.60980
H          2.34670       -1.95690       -0.25490
C          6.55880       -2.88860        1.84130
H          6.43860       -2.55440        3.96560
H          6.14910       -1.07980        2.97020
H          6.38370       -3.98270        1.91970
H          7.65340       -2.70340        1.81640
H          6.11960       -2.51520        0.89260
