19
TSA8_9_NH2_Br_CCl3
C          1.63310        0.18530        2.65700
C          1.24100        0.87920        1.36860
N          1.95810       -1.21880        2.39230
H          2.55440        0.68540        3.02350
Br         2.27760        2.34480        0.71160
C          0.53550        0.34660        3.75950
C         -0.78320       -0.27290        3.32920
C         -1.88230        0.46740        3.14730
O          0.27210        0.50570        0.72510
C          0.95900       -0.20020        5.15730
H          0.39140        1.44420        3.89040
H         -0.84580       -1.34420        3.16430
H         -1.86790        1.54230        3.30050
H         -2.81010       -0.00330        2.84030
H          2.76190       -1.26910        1.72450
H          1.14450       -1.71490        1.96200
Cl         2.44650        0.60050        5.73680
Cl        -0.31250        0.15110        6.36350
Cl         1.23330       -1.96770        5.17510
