19
TSA8_9_NH2_Br_CCl3
C          2.08350        0.08410        0.22610
C          1.20330        0.71900        1.01230
N          2.62880       -1.17800        0.57490
H          2.38820        0.54260       -0.70970
Br         0.52110        2.42300        0.42700
C         -0.19680        0.36070        5.44900
C         -0.31480       -0.17330        4.22140
C         -0.19750        0.66460        2.98150
O          0.81140        0.16290        2.18790
C         -0.31140       -0.47330        6.69870
H         -0.01680        1.42790        5.54980
H         -0.50430       -1.23780        4.10880
H          0.01580        1.72500        3.24250
H         -1.15950        0.61730        2.42740
H          3.29560       -1.63730       -0.06090
H          2.36510       -1.65860        1.44840
Cl        -0.13750        0.56470        8.13700
Cl        -1.90260       -1.27500        6.77450
Cl         0.97340       -1.70880        6.73830
