19
TSA8_9_CN_CN_Me
C          2.77140       -0.41760       -1.41700
C          1.67750       -1.44600       -1.12960
C          2.30940        0.83950       -0.76160
H          3.69570       -0.74680       -0.90040
C          1.81120       -2.43230       -0.08860
C          2.96770       -0.28360       -2.99090
C          2.08620        0.83980       -3.47360
C          0.83620        0.63900       -3.86750
O          0.61720       -1.40640       -1.72910
C          4.37270       -0.06650       -3.60720
H          2.66550       -1.26040       -3.43540
H          2.45090        1.86020       -3.36450
H          0.42820       -0.36140       -3.92020
H          0.21130        1.49340       -4.08790
N          1.90230        1.81560       -0.28730
N          1.90080       -3.20990        0.76330
H          5.06580       -0.91070       -3.40170
H          4.84990        0.89110       -3.31490
H          4.25690       -0.04140       -4.72010
