19
TSA8_9_CN_CN_Me
C          2.75490       -0.29040       -1.44410
C          1.38770       -1.01480       -1.25540
C          2.45520        1.07820       -0.96100
H          3.52870       -0.71020       -0.76030
C          1.45220       -2.24660       -0.45700
C          3.11030       -0.38900       -2.98550
C          2.01090        0.34630       -3.74060
C          0.63030       -0.08490       -3.24040
O          0.70820       -1.27670       -2.48020
C          4.45730       -0.00610       -3.64940
H          3.03690       -1.47010       -3.23450
H          2.12980        1.45210       -3.62990
H          0.01840       -0.26030       -4.14510
H          0.14200        0.71890       -2.64630
N          2.19340        2.14970       -0.61080
N          1.46760       -3.22040        0.17010
H          5.26490       -0.73920       -3.43430
H          4.80070        1.03140       -3.47270
H          4.31030       -0.09620       -4.75820
