20
TSA8_9_CH2F_CBr3_Cl
C          1.65410       -0.09280        0.06320
C          1.45100       -1.38870        0.42910
C          1.78500        0.43390       -1.34090
H          1.69990        0.68170        0.81640
C          1.23420       -1.78780        1.88160
C          4.19420       -4.24740       -1.15290
C          2.88120       -4.04170       -1.30450
C          2.30790       -2.66620       -1.48690
O          1.41110       -2.41990       -0.46420
Cl         4.81850       -5.87380       -0.93710
H          4.89480       -3.41760       -1.15820
H          2.20200       -4.88920       -1.29360
H          1.77390       -2.63610       -2.45950
H          3.12790       -1.91410       -1.49430
F          3.02940        1.01370       -1.50110
H          1.00540        1.20800       -1.49730
H          1.62930       -0.32170       -2.12830
Br         1.26650       -0.35440        3.20450
Br        -0.48930       -2.66060        2.03510
Br         2.60480       -3.06040        2.38970
