17
TSA8_9_CBr3_H_I
C          1.84080        0.02270        0.03640
C          1.20480        1.04180        0.64170
C          2.06660       -1.37940        0.56650
H          2.22840        0.21850       -0.95970
H          1.11790        1.98090        0.09800
C         -0.22390        2.39170        4.84070
C         -0.50230        1.57740        3.81700
C         -0.13690        1.93090        2.40580
O          0.67100        0.94720        1.87930
I         -0.75930        1.86620        6.81250
H          0.27740        3.34210        4.67950
H         -1.01120        0.63640        4.00630
H          0.38840        2.91160        2.36680
H         -1.06650        2.00150        1.80230
Br         1.24260       -2.62000       -0.66990
Br         3.97060       -1.72460        0.58650
Br         1.37940       -1.79190        2.34090
