17
TSA8_9_CBr3_H_I
C          1.65470        0.70190        2.10550
C          1.27660        1.55190        0.87270
C          1.56870       -0.82820        1.75330
H          2.72730        0.88880        2.33150
H          1.60640        2.61220        0.96830
C          0.82860        1.28610        3.29540
C         -0.66090        1.36310        2.96850
C         -0.84460        2.09820        1.63280
O         -0.11120        1.47410        0.59160
I          1.12400        0.46910        5.25590
H          1.16390        2.33970        3.42410
H         -1.11200        0.35480        2.93620
H         -0.55350        3.16870        1.72910
H         -1.92250        2.08700        1.36990
Br        -0.18070       -1.50990        1.24180
Br         2.73730       -1.18300        0.23730
Br         2.24940       -1.98330        3.15380
