16
TSA8_9_F_Br_NH2
C          0.99480       -0.99250       -1.49940
C          1.61790       -1.35210       -0.17770
F          1.98910       -0.54560       -2.35300
H          0.26400       -0.16760       -1.35170
Br         1.05960       -0.47360        1.42520
C          0.27600       -2.20160       -2.12690
C         -0.85040       -2.66730       -1.22900
C         -0.86050       -3.88420       -0.67830
O          2.48080       -2.21400       -0.11750
N         -0.25480       -1.84090       -3.44120
H          1.02450       -3.01450       -2.26930
H         -1.67120       -1.98730       -1.01840
H         -0.05420       -4.58870       -0.85680
H         -1.68160       -4.17930       -0.03340
H         -0.97690       -1.08930       -3.34990
H         -0.69740       -2.67840       -3.88310
