17
TSA8_9_CN_CN_OH
C          1.65450        0.07710       -0.02180
C          1.59990        0.99060        1.00430
C          1.79180       -1.36690        0.05490
H          1.46550        0.42930       -1.01880
C          1.30590        2.36090        0.68180
C          3.04660       -1.50320        4.49880
C          2.67160       -1.20290        3.24880
C          1.40310       -0.45030        2.96840
O          1.71100        0.73420        2.34080
O          4.19270       -2.17490        4.74820
H          2.42910       -1.20310        5.33820
H          3.29970       -1.50570        2.41610
H          0.84910       -0.24730        3.91430
H          0.70690       -1.03780        2.33600
N          1.90470       -2.51640        0.14790
N          1.07140        3.47110        0.46010
H          4.79960       -2.45440        4.04770
