24
TSA8_9_Et_NH2_NO2
C          2.37360       -1.77770        0.28870
C          1.36210       -1.55500        1.41520
C          2.24710       -0.62960       -0.76260
H          3.35170       -1.68960        0.81030
N          1.37840       -0.40730        2.13670
C          2.28580       -3.23130       -0.33770
C          1.21690       -3.37200       -1.41820
C         -0.09720       -3.20860       -1.22950
O          0.55950       -2.42370        1.71990
N          3.56130       -3.68410       -0.89150
H          2.06290       -3.95320        0.47810
H          1.53720       -3.63910       -2.42190
H         -0.52790       -2.95780       -0.27510
H         -0.77670       -3.33920       -2.06560
C          3.30730       -0.63030       -1.86170
H          2.33510        0.35210       -0.25420
H          1.24340       -0.66330       -1.23740
H          4.32110       -0.53840       -1.41820
H          3.14320        0.24120       -2.53020
H          3.24100       -1.54630       -2.48260
H          0.70900       -0.26760        2.90810
H          2.06380        0.33750        1.94770
O          4.55000       -3.01910       -0.81990
O          3.65330       -4.90590       -1.37340
