24
TSA8_9_Et_NH2_NO2
C          1.86250       -0.03140        0.14890
C          1.39690       -0.88840        1.10290
C          1.90540       -0.14520       -1.35720
H          2.26550        0.91340        0.50670
N          1.48630       -0.46080        2.45530
C          2.16470       -4.83180       -0.68850
C          1.95420       -3.50260       -0.66390
C          0.64160       -2.92080       -0.19630
O          0.82020       -2.11550        0.90930
N          3.39380       -5.40010       -1.13080
H          1.37490       -5.50480       -0.36560
H          2.74110       -2.83290       -0.98660
H         -0.03520       -3.74750        0.10830
H          0.09210       -2.38260       -0.99110
C          3.33990        0.02130       -1.85080
H          1.29010        0.67540       -1.78340
H          1.51540       -1.07990       -1.76630
H          3.74670        1.00510       -1.53120
H          3.36180       -0.02400       -2.96010
H          3.98720       -0.78520       -1.44640
H          1.13630       -1.06870        3.20980
H          1.88870        0.45350        2.71090
O          4.29540       -4.71010       -1.49980
O          3.53490       -6.70720       -1.13840
