27
TSA8_9_Et_OMe_CH2F
C          3.04830       -1.45150       -0.76220
C          1.93980       -2.23170       -0.08580
C          2.62890        0.04930       -0.74320
H          3.94640       -1.57820       -0.11720
O          2.21000       -2.88600        1.07290
C          3.36200       -2.12140       -2.14490
C          2.39410       -1.69750       -3.22830
C          1.56100       -2.55910       -3.81870
O          0.82190       -2.27550       -0.58320
C          4.82220       -1.96230       -2.61840
H          3.28420       -3.22250       -1.98050
H          2.37400       -0.65920       -3.54380
H          1.54400       -3.60760       -3.54060
H          0.88630       -2.21110       -4.59470
C          3.64300        1.05310       -1.27550
H          2.44400        0.32280        0.32020
H          1.67380        0.19430       -1.29340
H          4.62150        0.93050       -0.76560
H          3.26820        2.08080       -1.08370
H          3.74470        0.96720       -2.37100
C          1.29410       -3.65620        1.75540
H          1.77440       -4.06780        2.66740
H          0.95620       -4.50130        1.11800
H          0.42200       -3.03880        2.05730
F          5.17180       -0.67430       -2.94650
H          4.98000       -2.59250       -3.52030
H          5.51330       -2.33240       -1.83020
