27
TSA8_9_Et_OMe_CH2F
C          1.97350       -0.13340        0.10390
C          1.74240       -1.46850        0.06230
C          1.76120        0.91350       -0.95860
H          2.33920        0.26420        1.04840
O          1.95650       -2.14460        1.22020
C          3.70070       -3.43760       -3.09250
C          3.19560       -2.37690       -2.44620
C          1.71330       -2.13760       -2.34500
O          1.30850       -2.18560       -1.02090
C          5.17980       -3.65730       -3.17890
H          3.03880       -4.15950       -3.56330
H          3.86750       -1.66420       -1.97650
H          1.15510       -2.92790       -2.89130
H          1.45380       -1.20070       -2.84910
C          3.08600        1.57180       -1.32720
H          1.07890        1.68560       -0.54390
H          1.26970        0.54390       -1.86190
H          3.55640        2.02490       -0.42820
H          2.91020        2.37270       -2.07600
H          3.78050        0.82290       -1.76280
C          1.82520       -3.51060        1.34400
H          2.04990       -3.80460        2.38970
H          2.54150       -4.02410        0.66670
H          0.78730       -3.82150        1.09870
F          5.77780       -2.59560       -3.83320
H          5.38610       -4.59100       -3.74270
H          5.60820       -3.75210       -2.15880
