20
TSA8_9_Me_F_CHF2
C          1.31730       -2.27480       -0.32110
C          1.14140       -1.21380        0.74140
C          0.97220       -1.67880       -1.69670
H          2.39800       -2.53720       -0.33710
F          2.21640       -0.79700        1.46050
C          0.52410       -3.56970        0.05070
C         -0.97110       -3.33320        0.13050
C         -1.65160       -3.48980        1.27090
O          0.04870       -0.71200        0.95550
C          0.79660       -4.75440       -0.89760
H          0.90120       -3.88600        1.05060
H         -1.51210       -3.03220       -0.76160
H         -1.15390       -3.79140        2.18700
H         -2.72230       -3.31370        1.29140
H         -0.09730       -1.38910       -1.75650
H          1.20740       -2.38860       -2.51290
H          1.58910       -0.77170       -1.87580
F          0.29660       -4.52930       -2.16760
F          2.15390       -5.01050       -0.97580
H          0.29610       -5.66180       -0.49660
