20
TSA8_9_Me_F_CHF2
C          1.90660       -0.09660        0.04800
C          1.27700       -1.04270        0.75960
C          2.01260       -0.11720       -1.45040
H          2.35090        0.74310        0.57410
F          1.21000       -0.90900        2.11330
C         -0.45180       -5.34900        0.22320
C         -0.58970       -4.05790       -0.11920
C         -0.17400       -2.94960        0.80540
O          0.69970       -2.10720        0.15280
C         -0.87960       -6.45160       -0.69790
H         -0.03320       -5.61570        1.18930
H         -1.02720       -3.79620       -1.07840
H          0.29680       -3.35530        1.72780
H         -1.07930       -2.37160        1.08920
H          1.52400       -1.00640       -1.89990
H          3.08210       -0.11040       -1.74490
H          1.52220        0.79290       -1.85580
F         -2.22470       -6.32840       -0.99420
F         -0.14210       -6.40430       -1.86650
H         -0.70880       -7.43180       -0.20450
