20
TSA8_9_Me_F_CHF2
C          1.38210       -2.61810       -0.30110
C          1.21990       -1.63160        0.87060
C          1.18060       -1.85830       -1.62400
H          2.42630       -3.00060       -0.30420
F          1.67040       -2.16340        2.07060
C          0.40270       -3.80290       -0.06840
C         -1.01910       -3.27080        0.15740
C         -0.99280       -2.23210        1.28590
O         -0.11460       -1.15940        0.98270
C          0.42370       -4.88830       -1.15880
H          0.71940       -4.30370        0.87480
H         -1.41960       -2.80520       -0.76810
H         -0.72300       -2.70580        2.25610
H         -2.01840       -1.82630        1.41010
H          1.36700       -2.51860       -2.49390
H          1.91450       -1.02690       -1.68830
H          0.16290       -1.42420       -1.70350
F         -0.05870       -4.41730       -2.36660
F          1.70940       -5.36880       -1.33100
H         -0.22590       -5.73220       -0.84200
