16
TSA8_9_NO2_Br_Br
C          1.81140       -1.66730        1.16220
C          1.06620       -0.36750        1.52200
N          1.68990       -1.90190       -0.27360
H          2.89350       -1.54580        1.38900
Br         1.57370        0.41000        3.24020
C          1.24360       -2.80480        2.04560
C         -0.28120       -2.86900        1.91920
C         -0.86360       -1.48400        2.22600
O         -0.33970       -0.49040        1.35700
Br         2.06590       -4.53150        1.69530
H          1.47590       -2.57040        3.10750
H         -0.59130       -3.17970        0.90130
H         -0.69870       -1.21340        3.29130
H         -1.96350       -1.53150        2.08660
O          2.12180       -1.08990       -1.03510
O          1.15850       -3.00430       -0.75750
