16
TSA8_9_NO2_I_Br
C          0.66710       -1.34200        0.18400
C          1.34840       -0.40360        1.15360
N          1.66600       -1.96460       -0.67890
H         -0.00720       -0.73680       -0.46140
I          0.90180        1.65890        1.13490
C         -0.24400       -2.34760        0.94370
C          0.49930       -3.22340        1.92800
C          0.23930       -3.18030        3.23910
O          2.17370       -0.82160        1.95100
Br        -1.24210       -3.46840       -0.29350
H         -1.00640       -1.74680        1.48810
H          1.26410       -3.90730        1.57700
H          0.78880       -3.81820        3.92330
H         -0.51610       -2.51240        3.64230
O          2.36470       -1.27480       -1.35820
O          1.79290       -3.27220       -0.75950
