16
TSA8_9_NO2_I_Br
C          1.97650       -0.01420        0.08540
C          1.25590       -0.52360        1.09920
N          2.27120       -0.72850       -1.11380
H          2.35140        1.00160        0.18330
I          0.92100        0.71860        2.79660
C         -1.15480       -4.52890        2.36860
C         -0.37230       -3.76540        1.60120
C         -0.04590       -2.35610        1.99460
O          0.76070       -1.78610        1.03400
Br        -1.55770       -6.32560        1.85490
H         -1.57310       -4.14180        3.29300
H          0.03440       -4.17340        0.67970
H          0.48060       -2.36680        2.97400
H         -0.98840       -1.77190        2.08240
O          2.91320       -0.19650       -1.96750
O          1.84400       -1.95950       -1.30460
