18
TSA8_9_F_CBr3_OH
C          1.84520       -0.19920       -0.04240
C          1.56490       -1.28270       -0.80570
F          2.12590        1.01910       -0.57240
H          1.82410       -0.24610        1.03740
C          1.18970       -2.62380       -0.19600
C          2.84210       -1.17650       -5.31420
C          3.04490       -1.26340       -3.99150
C          2.29280       -0.41110       -3.01180
O          1.57670       -1.24380       -2.17080
O          3.52830       -1.95670       -6.17870
H          2.11750       -0.47330       -5.71280
H          3.77240       -1.97080       -3.60330
H          1.58530        0.26900       -3.53300
H          3.04680        0.19200       -2.47120
Br         1.15130       -2.71740        1.75190
Br        -0.57060       -3.13010       -0.82910
Br         2.45820       -3.95550       -0.80660
H          4.18450       -2.60480       -5.88410
