18
TSA8_9_F_CBr3_OH
C          3.01860       -1.48030       -1.59260
C          1.49920       -1.18830       -1.34540
F          3.76070       -0.40200       -1.13960
H          3.35910       -2.37780       -1.03420
C          0.72970       -2.35060       -0.68770
C          3.25950       -1.65910       -3.09670
C          2.79510       -0.40520       -3.86090
C          1.58750        0.24380       -3.16480
O          0.81720       -0.75070       -2.52210
O          4.61110       -1.92920       -3.35800
H          2.63450       -2.52230       -3.41860
H          3.58700        0.37190       -3.95010
H          0.97500        0.79370       -3.90780
H          1.92270        1.00570       -2.42140
Br         1.45150       -2.72990        1.07340
Br        -1.12890       -1.85080       -0.44220
Br         0.77890       -3.97350       -1.75380
H          4.64870       -2.33190       -4.26450
