20
TSA8_9_NH2_Me_OH
C          2.87180       -0.95290        0.83020
C          1.43910       -0.94980        1.33000
N          2.94320       -0.38910       -0.52020
H          3.45020       -0.28430        1.50780
C          1.07990       -0.18110        2.56710
C          3.60160       -2.32420        0.89020
C          3.06490       -3.39360       -0.04090
C          1.90400       -4.02620        0.14880
O          0.55950       -1.52690        0.71070
O          4.94720       -2.09210        0.55620
H          3.55550       -2.69840        1.94110
H          3.67570       -3.69870       -0.88680
H          1.26940       -3.81010        0.99870
H          1.59150       -4.79760       -0.54790
H          2.38000       -0.96880       -1.18460
H          2.55130        0.58100       -0.51470
H          1.64950       -0.57950        3.43270
H         -0.00670       -0.26560        2.78350
H          1.33290        0.89070        2.42580
H          5.48180       -2.81680        0.97580
