17
TSA8_9_H_NH2_OH
C          3.11550        0.58440        1.20020
C          1.58290        0.82630        1.35080
H          3.29650       -0.44320        0.81670
H          3.55860        1.29460        0.46890
N          1.30000        2.25600        1.27840
C          3.75540        0.70810        2.58560
C          3.14910       -0.33680        3.54340
C          1.74930       -0.77540        3.07480
O          1.02030        0.32140        2.56780
O          5.15520        0.60510        2.53900
H          3.49910        1.71880        2.97120
H          3.76370       -1.26070        3.61600
H          1.20560       -1.23350        3.92710
H          1.81920       -1.56510        2.29170
H          0.26620        2.38780        1.36020
H          1.57160        2.59990        0.32910
H          5.37560       -0.26800        2.12040
