23
TSA8_9_CH2F_NH2_OMe
C          2.80590        1.30820       -0.54190
C          1.44070        0.97660       -1.12660
C          2.90630        0.57640        0.81960
H          3.57370        0.88720       -1.22710
N          1.33910        0.28740       -2.28830
C          2.99230        2.86710       -0.52650
C          2.16730        3.58140        0.53400
C          1.17580        4.42210        0.22100
O          0.42320        1.33330       -0.54910
O          4.34130        3.32220       -0.57850
H          2.60780        3.19380       -1.51970
H          2.37350        3.40980        1.58510
H          0.91770        4.63270       -0.81180
H          0.61010        4.90810        1.00970
F          4.16020        0.62970        1.38440
H          2.68060       -0.50100        0.66590
H          2.16170        0.97370        1.54170
H          0.41390        0.06270       -2.68340
H          2.17900       -0.02570       -2.79610
C          5.12580        3.04320        0.55640
H          5.87690        3.85260        0.65820
H          5.69050        2.10260        0.39490
H          4.56230        3.03970        1.50980
