23
TSA8_9_CH2F_NH2_OMe
C          2.69810        1.19650       -0.51030
C          1.24040        1.26960       -1.08350
C          2.66940        0.75100        0.96170
H          3.26740        0.41200       -1.05780
N          1.14260        0.49770       -2.31850
C          3.38910        2.55830       -0.72960
C          2.54720        3.72160       -0.12030
C          1.04460        3.41540       -0.22640
O          0.79230        2.59910       -1.34580
O          4.78620        2.50330       -0.44050
H          3.33060        2.73290       -1.82740
H          2.73380        3.95580        0.94760
H          0.47930        4.36640       -0.30590
H          0.66130        2.92110        0.69610
F          3.95330        0.54530        1.43200
H          2.12380       -0.21320        1.04310
H          2.16110        1.48940        1.61290
H          0.15670        0.54910       -2.66160
H          1.33930       -0.50570       -2.10180
C          5.18680        3.24900        0.68680
H          5.09820        4.33970        0.49270
H          6.26000        3.04070        0.87350
H          4.64490        2.93740        1.60440
