22
TSA8_9_OH_Et_OH
C          2.07630        2.01650        0.11640
C          0.92340        2.36060       -0.79690
O          1.63430        1.06430        1.04990
H          2.92550        1.59550       -0.47440
C          1.03030        2.11860       -2.28330
C          2.59920        3.28470        0.83180
C          3.71720        2.98480        1.81020
C          3.52430        2.27630        2.92840
O         -0.10040        2.82460       -0.31540
O          3.07420        4.17560       -0.14600
H          1.75930        3.76220        1.38990
H          4.70910        3.38280        1.61670
H          2.54780        1.88150        3.18900
H          4.35010        2.10100        3.60860
H          1.71480        0.17540        0.61290
C         -0.24600        2.49250       -3.03850
H          1.24240        1.04200       -2.45830
H          1.87600        2.71800       -2.68450
H         -1.10060        1.88430       -2.67350
H         -0.11050        2.29690       -4.12340
H         -0.47710        3.57040       -2.89820
H          3.14200        5.06840        0.28380
