23
TSA8_9_Me_OMe_NO2
C          1.87010        0.04340       -0.02560
C          1.83440       -1.16980        0.58490
C          1.75090        0.42210       -1.47680
H          2.00000        0.90280        0.62790
O          1.96590       -1.15230        1.93590
C          4.05620       -3.74780       -1.98320
C          3.27840       -2.68190       -1.72020
C          1.84040       -2.84330       -1.30280
O          1.68200       -2.39610       -0.00750
N          5.42700       -3.61940       -2.34100
H          3.63600       -4.74770       -1.90850
H          3.69260       -1.68110       -1.78080
H          1.56620       -3.91980       -1.30890
H          1.12410       -2.36960       -1.99580
H          1.61720       -0.39470       -2.18760
H          2.66870        0.96930       -1.77560
H          0.88520        1.10670       -1.59360
C          2.11940       -2.29110        2.69820
H          2.19900       -2.00800        3.76730
H          3.05120       -2.82000        2.40060
H          1.24850       -2.96800        2.56640
O          5.94810       -2.54660       -2.41630
O          6.14180       -4.70140       -2.55680
