17
TSA8_9_Br_Cl_CF3
C          1.87130       -0.77940       -2.21350
C          0.57980       -1.55280       -2.23270
Br         1.67650        0.65830       -0.91160
H          2.68800       -1.44410       -1.85620
Cl         0.55660       -3.24840       -1.77460
C          2.24670       -0.21750       -3.61170
C          3.52530        0.58770       -3.50670
C          3.56970        1.89010       -3.80530
O         -0.46230       -1.00880       -2.56390
C          2.45150       -1.32860       -4.66660
H          1.41860        0.44010       -3.96160
H          4.43620        0.09420       -3.17900
H          2.68310        2.42230       -4.13610
H          4.50410        2.43470       -3.71770
F          3.45340       -2.19800       -4.27010
F          1.28640       -2.04780       -4.86200
F          2.80820       -0.76060       -5.87780
