17
TSA8_9_Br_Cl_CF3
C          1.82990       -0.18500       -0.17540
C          1.46220       -0.46410       -1.43260
Br         2.11150        1.61020        0.43300
H          1.96330       -0.98970        0.54050
Cl         1.18590       -2.13490       -1.90330
C          2.19340       -0.52220       -4.96920
C          2.92140        0.06850       -4.01060
C          2.30940        1.07740       -3.07730
O          1.27630        0.52070       -2.34540
C          2.80170       -1.52620       -5.90380
H          1.14090       -0.27340       -5.07760
H          3.97490       -0.17390       -3.90030
H          1.91060        1.92250       -3.67710
H          3.08790        1.47690       -2.39300
F          3.28970       -2.60190       -5.18490
F          1.84150       -1.97530       -6.79150
F          3.83450       -0.94180       -6.61430
