17
TSA8_9_Br_Cl_CF3
C          2.26540       -0.91820       -2.26770
C          1.10620       -0.10080       -1.62140
Br         3.97900       -0.36740       -1.50780
H          2.16240       -1.98820       -1.98530
Cl        -0.33800       -1.14000       -1.47440
C          2.18490       -0.73730       -3.79580
C          2.31050        0.75720       -4.15710
C          1.78830        1.65970       -3.02500
O          0.70210        1.05700       -2.35800
C          3.16600       -1.60970       -4.60020
H          1.15890       -1.05770       -4.08560
H          3.35240        1.07740       -4.37530
H          1.47940        2.63520       -3.45350
H          2.58710        1.89860       -2.28960
F          2.97710       -2.94350       -4.28490
F          2.93300       -1.44110       -5.95370
F          4.47920       -1.26740       -4.33270
