21
TSA8_9_CCl3_OMe_F
C          1.28910       -0.35490       -0.11030
C          1.91730       -0.46880        1.08360
C          2.02070       -0.31370       -1.43250
H          0.21140       -0.27220       -0.14950
O          3.27290       -0.53500        1.10880
C         -0.86320       -1.52480        4.72570
C         -0.20230       -1.78640        3.59350
C         -0.09940       -0.78130        2.48380
O          1.23670       -0.49240        2.26900
F         -0.93020       -2.46310        5.70550
H         -1.35280       -0.56800        4.87930
H          0.27630       -2.75340        3.46880
H         -0.63110        0.15770        2.74940
H         -0.58340       -1.22820        1.59350
Cl         2.93520       -1.82270       -1.69190
Cl         0.84870       -0.14110       -2.76500
Cl         3.13590        1.07770       -1.49700
C          4.00820       -0.65360        2.26760
H          5.08660       -0.69240        2.01120
H          3.73300       -1.58900        2.80060
H          3.82710        0.22210        2.92700
