19
TSA8_9_I_NH2_CCl3
C          2.09900       -0.65540       -2.37380
C          0.80980       -1.40620       -2.14890
I          2.25480        0.78430       -0.77650
H          2.95930       -1.35000       -2.25890
N          0.82140       -2.73760       -1.90210
C          2.19070        0.03520       -3.77010
C          3.50600        0.79220       -3.83490
C          3.55830        2.12010       -3.98240
O         -0.25540       -0.80690       -2.18430
C          2.10640       -0.93890       -4.99090
H          1.34650        0.75630       -3.85800
H          4.43880        0.24030       -3.75880
H          2.65320        2.71360       -4.06220
H          4.51950        2.62210       -4.02350
H         -0.06120       -3.24730       -1.74680
H          1.70710       -3.26270       -1.86560
Cl         2.32020       -0.03400       -6.51910
Cl         3.36410       -2.20850       -4.92610
Cl         0.51710       -1.74030       -5.13550
