19
TSA8_9_I_NH2_CCl3
C          1.95440       -1.29950       -3.11220
C          1.07880       -0.47630       -2.14210
I          3.78390       -1.89420       -2.11230
H          1.41090       -2.22650       -3.39030
N          0.63100       -1.23430       -0.97750
C          2.13070       -0.40960       -4.37730
C          2.70840        0.95640       -3.96130
C          1.83020        1.56340       -2.85290
O          1.75730        0.69540       -1.73910
C          2.89150       -1.03750       -5.58060
H          1.09950       -0.22010       -4.75730
H          3.74770        0.84090       -3.58640
H          0.81100        1.80350       -3.23610
H          2.28350        2.52290       -2.52880
H          0.10270       -2.07700       -1.29840
H          1.44400       -1.53590       -0.39580
Cl         2.76060        0.04940       -6.99180
Cl         4.63420       -1.30560       -5.30210
Cl         2.15170       -2.59230       -6.05180
