19
TSA8_9_OH_NO2_NH2
C          2.51360        0.78820        0.60960
C          1.47420        1.26210       -0.40180
O          1.88890        0.19210        1.72160
H          3.14200        0.00210        0.14160
N          1.42380        0.75980       -1.66830
C          3.48970        1.91750        1.03200
C          2.78930        3.07890        1.71060
C          2.80790        4.31240        1.19590
O          0.66310        2.11290       -0.05940
N          4.52330        1.37680        1.91700
H          3.99150        2.27490        0.10370
H          2.25960        2.91130        2.64340
H          3.32620        4.52680        0.26630
H          2.29740        5.12130        1.70810
H          1.26400        0.85150        2.11940
O          0.59570        1.15120       -2.43560
O          2.28180       -0.15460       -2.06850
H          4.09880        1.06030        2.81980
H          5.22570        2.12310        2.12780
