16
TSA8_9_OH_Cl_OH
C          1.91550       -0.04760        0.09910
C          1.22990       -1.18640        0.23080
O          1.97780        0.58070       -1.09280
H          2.42560        0.38190        0.95700
Cl         1.17060       -1.96740        1.81420
C         -0.47610       -4.27470       -2.82050
C         -0.72960       -3.12760       -2.17200
C         -0.18250       -2.85310       -0.80180
O          0.59360       -1.71530       -0.84610
O         -0.97600       -4.50660       -4.05410
H          0.14040       -5.04040       -2.35850
H         -1.34860       -2.36830       -2.64140
H          0.42830       -3.70910       -0.43730
H         -1.03480       -2.69730       -0.10590
H          2.46820        1.40860       -1.18730
H         -1.53060       -3.86340       -4.51900
