23
TSA8_9_Et_NH2_CN
C          2.07040        1.42110        1.00500
C          0.97600        1.79650        0.01950
C          1.97540       -0.11690        1.31610
H          3.01860        1.62540        0.45550
N          1.29120        2.19840       -1.23700
C          2.00900        2.35680        2.27270
C          1.13230        1.80410        3.38120
C         -0.20060        1.84760        3.37180
O         -0.19770        1.71910        0.34190
C          3.33960        2.63600        2.83520
H          1.66000        3.37500        1.98510
H          1.61500        1.30090        4.21680
H         -0.74770        2.34100        2.58390
H         -0.75160        1.38190        4.18220
C          3.28440       -0.88350        1.18270
H          1.27100       -0.60950        0.61030
H          1.55400       -0.32020        2.31670
H          3.59180       -0.91560        0.11510
H          3.11270       -1.93110        1.51800
H          4.08670       -0.43440        1.79940
H          2.27070        2.24990       -1.55540
H          0.54780        2.44370       -1.90680
N          4.36310        2.88790        3.31430
