19
TSA8_9_H_NH2_Me
C          3.27700        1.37870        1.43150
C          1.80450        1.66620        1.23000
H          3.60430        0.63200        0.67460
H          3.82620        2.32710        1.24380
N          1.36930        2.11890        0.03180
C          3.63700        0.86450        2.84370
C          2.99280       -0.47870        3.10560
C          2.13410       -0.67050        4.11160
O          1.00210        1.50360        2.13780
C          5.15610        0.72290        2.98290
H          3.29970        1.61750        3.59220
H          3.23710       -1.31570        2.45710
H          1.86360        0.13920        4.78210
H          1.69300       -1.64950        4.26760
H          0.37030        2.32330       -0.11930
H          2.02980        2.26580       -0.74530
H          5.65010        1.70340        2.81340
H          5.55420       -0.00930        2.24730
H          5.41450        0.37810        4.00730
