19
TSA8_9_H_NH2_Me
C          3.22150        0.75960        1.31240
C          1.69820        1.08500        1.23780
H          3.38350       -0.32350        1.11750
H          3.77940        1.32280        0.53270
N          1.50800        2.48540        0.87570
C          3.71260        1.07750        2.72740
C          2.94360        0.20190        3.74070
C          1.56410       -0.21180        3.19580
O          0.98370        0.83800        2.45390
C          5.22490        0.89440        2.87400
H          3.46940        2.14440        2.93120
H          3.47620       -0.74050        3.99560
H          0.90490       -0.49270        4.04290
H          1.64460       -1.11760        2.55160
H          0.48080        2.66920        0.81490
H          1.89480        2.63340       -0.08420
H          5.75970        1.56060        2.16390
H          5.51370       -0.15760        2.66350
H          5.54090        1.15550        3.90610
