15
TSA8_9_CN_F_Br
C          2.10640       -1.56480       -0.85590
C          2.53850       -1.67540        0.57700
C          2.55660       -0.36920       -1.59730
H          1.07200       -1.27540       -0.61650
F          2.14450       -0.68840        1.43000
C          2.00220       -2.88500       -1.68400
C          0.61550       -2.88940       -2.25510
C         -0.39960       -3.22710       -1.44810
O          2.96970       -2.72370        1.04960
Br         3.32830       -3.15720       -3.08920
H          2.09420       -3.78970       -1.03150
H          0.41210       -2.44050       -3.22120
H         -0.19820       -3.59830       -0.44230
H         -1.42410       -3.09690       -1.76190
N          2.85760        0.55420       -2.22910
