18
TSA8_9_Br_OH_CF3
C          1.46180       -2.35200        0.14730
C          2.68850       -1.42500        0.17150
Br         0.12120       -1.51210       -0.99450
H          0.97300       -2.41170        1.14280
O          3.63800       -1.84150        1.10730
C          1.84110       -3.76160       -0.38740
C          3.12100       -3.70340       -1.25140
C          3.21690       -2.35870       -1.98090
O          3.29830       -1.23150       -1.10570
C          2.01000       -4.80350        0.73780
H          0.99450       -4.12130       -1.01180
H          4.03170       -3.76930       -0.61670
H          2.35680       -2.23880       -2.67260
H          4.13850       -2.38150       -2.60000
H          3.57840       -1.17530        1.83810
F          3.02700       -4.44640        1.60480
F          0.83230       -4.91500        1.45630
F          2.30410       -6.04010        0.19000
