20
TSA8_9_NO2_OH_CHF2
C          2.55050        1.46130       -1.06980
C          1.54240        0.34370       -1.25440
N          2.77870        1.69400        0.34900
H          3.50650        1.12150       -1.53000
O          1.89020       -0.80200       -1.87990
C          2.12770        2.75340       -1.83590
C          0.82490        3.34810       -1.33640
C         -0.25840        3.43670       -2.11460
O          0.40280        0.46470       -0.83260
C          3.22410        3.83410       -1.79260
H          2.00920        2.46410       -2.90560
H          0.75990        3.72720       -0.32210
H         -0.24790        3.07780       -3.13890
H         -1.17130        3.87390       -1.72320
O          3.86550        1.51950        0.81240
O          1.78990        2.03880        1.14630
H          2.78080       -0.94770       -2.22830
F          3.45120        4.26930       -0.49840
F          4.40570        3.34480       -2.32140
H          2.90870        4.70610       -2.40530
