20
TSA8_9_NO2_OH_CHF2
C          2.07120        0.12200       -0.16200
C          1.60570        0.15020       -1.45250
N          1.91370        1.05450        0.91140
H          2.64900       -0.76310        0.09870
O          1.89360       -0.92400       -2.22660
C          2.05730        4.26780       -2.65190
C          1.82170        3.27860       -1.77600
C          0.56950        2.43990       -1.84700
O          0.88360        1.12040       -2.09400
C          3.30850        5.09090       -2.58290
H          1.33760        4.48840       -3.43560
H          2.55380        3.07150       -1.00180
H         -0.06220        2.78720       -2.69240
H         -0.08490        2.54350       -0.96680
O          2.44930        0.81560        1.95060
O          1.11980        2.09250        0.85000
H          2.39950       -1.69160       -1.92170
F          3.38060        5.74230       -1.36510
F          4.41720        4.27870       -2.73840
H          3.30030        5.84700       -3.39580
