16
TSA8_9_H_NO2_I
C          2.91460       -0.74220       -1.34280
C          1.37180       -0.50950       -1.28320
H          3.44420        0.12830       -0.89930
H          3.20680       -1.64070       -0.75790
N          0.68380       -1.78220       -1.17640
C          3.32580       -0.85390       -2.80740
C          2.98520        0.45910       -3.53400
C          1.78590        1.16650       -2.87650
O          0.85220        0.22350       -2.40070
I          5.39950       -1.33150       -3.03610
H          2.73760       -1.68000       -3.26350
H          3.82680        1.18600       -3.51660
H          1.30830        1.84310       -3.61520
H          2.11760        1.81320       -2.03110
O         -0.12030       -2.11400       -1.99540
O          0.89100       -2.54960       -0.12860
