14
TSA8_9_Br_H_H
C          2.10090        1.74830       -0.89640
C          1.05530        0.73370       -0.52770
Br         2.85220        2.51720        0.72360
H          2.93150        1.24040       -1.43410
H          0.17080        1.03810        0.02300
C          1.52890        2.83330       -1.82310
C          0.39850        3.60550       -1.18640
C         -0.82870        3.62400       -1.71440
O          1.19250       -0.43810       -0.84090
H          2.33770        3.54780       -2.08710
H          1.18800        2.34750       -2.76450
H          0.58490        4.16400       -0.27430
H         -1.05830        3.07900       -2.62490
H         -1.61840        4.18950       -1.23020
