14
TSA8_9_Br_H_H
C          2.07690        0.04540       -0.21920
C          1.35580        1.15160       -0.39850
Br         2.90990       -0.30690        1.46470
H          2.19680       -0.66920       -1.02760
H          1.24040        1.85660        0.42060
C          0.96560        4.57860       -2.81830
C          0.81290        3.76080       -1.77280
C         -0.00750        2.49910       -1.85910
O          0.76620        1.38600       -1.59580
H          1.56220        5.47950       -2.71850
H          0.50290        4.36150       -3.77630
H          1.29180        4.01670       -0.83250
H         -0.44190        2.38610       -2.87550
H         -0.84870        2.55140       -1.13420
