14
TSA8_9_Br_H_H
C          2.23170        1.57660       -1.18250
C          0.93620        0.99910       -0.57030
Br         3.46750        1.96370        0.26810
H          2.72770        0.84070       -1.85040
H          0.69570        1.46010        0.41630
C          1.93380        2.84200       -2.01250
C          0.72190        3.55130       -1.42270
C         -0.48240        2.58260       -1.56790
O         -0.16150        1.19350       -1.43620
H          2.83160        3.49070       -2.09200
H          1.65080        2.54520       -3.04750
H          0.93320        3.77760       -0.35430
H         -0.85750        2.71390       -2.60460
H         -1.30260        2.87180       -0.87730
