17
TSA8_9_CN_OH_OH
C          2.23850       -1.40000        0.93730
C          2.60310       -0.36990        1.96470
C          2.75100       -1.14840       -0.41910
H          1.16970       -1.15750        0.85120
O          2.25400        0.90820        1.71430
C          2.39320       -2.89830        1.36350
C          1.16150       -3.61020        0.85540
C         -0.03500       -3.26180        1.36150
O          2.96450       -0.69450        3.09540
O          3.57480       -3.46750        0.83880
H          2.40440       -3.02510        2.47160
H          1.22650       -4.36350        0.07980
H         -0.09640       -2.50420        2.14390
H         -0.95050       -3.70110        0.99770
N          3.12720       -0.98500       -1.50540
H          2.18900        1.57250        2.41170
H          3.52650       -4.45120        0.98930
