17
TSA8_9_CN_OH_OH
C          1.63800        0.03010        0.08670
C          1.67580       -0.05000        1.43580
C          1.72950       -1.07090       -0.84410
H          1.52430        1.00740       -0.36430
O          1.61930        1.10530        2.12440
C          2.28210       -4.58160        2.10170
C          2.13980       -3.42520        1.44470
C          1.14190       -2.39190        1.86330
O          1.79420       -1.20970        2.14210
O          3.19530       -5.49490        1.70610
H          1.66130       -4.80020        2.96470
H          2.75990       -3.22080        0.57870
H          0.58070       -2.70840        2.77130
H          0.39380       -2.24970        1.05960
N          1.79960       -1.92620       -1.62100
H          1.81350        1.12220        3.06990
H          3.78940       -5.33890        0.95720
