17
TSA8_9_CN_OH_OH
C          2.59270       -1.51680        0.75030
C          1.58590       -0.65500        1.53860
C          2.09340       -1.74530       -0.62320
H          3.57090       -0.97820        0.65190
O          2.20690        0.52360        1.99360
C          2.77690       -2.86970        1.47160
C          1.38960       -3.53310        1.58900
C          0.35450       -2.52090        2.12010
O          0.98940       -1.36310        2.62310
O          3.72420       -3.67040        0.80590
H          3.14110       -2.68190        2.50950
H          1.03840       -3.90020        0.59480
H         -0.22100       -3.01250        2.93170
H         -0.38040       -2.23450        1.33370
N          1.66550       -1.94610       -1.67470
H          1.82150        0.75980        2.87780
H          3.42800       -4.61520        0.84300
