21
TSA8_9_OH_Et_H
C          2.67000        0.42240        0.82370
C          1.39720        1.22640        0.45860
O          2.33880       -0.82580        1.38760
H          3.24480        0.20850       -0.10280
C          1.62700        2.36790       -0.55340
C          3.54080        1.23870        1.78830
C          2.70240        1.67720        2.98700
C          1.46140        2.42820        2.48570
O          0.67020        1.62770        1.61780
H          4.42210        0.64890        2.11900
H          3.91650        2.14790        1.27220
H          2.38990        0.79500        3.58510
H          1.74120        3.38780        2.00290
H          0.84560        2.69870        3.36840
H          1.59050       -0.70620        2.02750
C          0.31120        3.03550       -0.94000
H          2.08680        1.94070       -1.47000
H          2.32020        3.13490       -0.15290
H         -0.38650        2.28860       -1.37480
H          0.50380        3.82730       -1.69430
H         -0.16230        3.50470       -0.05150
