22
TSA8_9_CBr3_NO2_CCl3
C          1.73570        0.04450       -0.08500
C          1.41960        0.41600       -1.35400
C          1.89590        0.90270        1.15620
H          1.89980       -1.01310        0.09880
N          1.25510       -0.57890       -2.36690
C          2.60310        3.94130       -3.93940
C          2.65620        2.74890       -3.32530
C          2.34640        2.57830       -1.86720
O          1.27410        1.71340       -1.73020
C          2.93000        4.08730       -5.40360
H          2.32050        4.82370       -3.37130
H          2.93760        1.86390       -3.88930
H          2.09970        3.55160       -1.39380
H          3.25770        2.17110       -1.37520
Br         0.94800        0.02440        2.59990
Br         3.76900        0.96230        1.63600
Br         1.18430        2.70940        1.10980
O          0.98190       -0.25050       -3.48140
O          1.38450       -1.86080       -2.09210
Cl         2.75590        5.78930       -5.89970
Cl         4.61120        3.57970       -5.71660
Cl         1.82420        3.09620       -6.39180
