20
TSA8_9_I_CH2F_CHF2
C          2.75020        1.76970       -1.74620
C          1.34390        1.46490       -1.13170
I          4.29180        1.22210       -0.33690
H          2.93930        1.10170       -2.61500
C          0.41030        0.87340       -2.18960
C          2.77820        3.24900       -2.17750
C          2.51700        4.15760       -0.96000
C          1.60680        3.46470        0.06950
O          0.68900        2.60880       -0.57210
C          4.03280        3.67660       -2.95530
H          1.91840        3.38210       -2.87100
H          3.44160        4.46910       -0.42680
H          1.06700        4.23720        0.65520
H          2.19700        2.88640        0.81350
F         -0.80670        0.55660       -1.61420
H          0.85130       -0.05450       -2.61130
H          0.24250        1.60090       -3.01240
F          5.17230        3.58670       -2.17730
F          4.18690        2.88570       -4.08000
H          3.91790        4.73180       -3.28390
