19
TSA8_9_OH_CN_CH2F
C          1.62150       -0.05960       -0.01460
C          1.49860       -1.34750       -0.41480
O          1.55270        0.97400       -0.87980
H          1.66390        0.16800        1.04800
C          1.36530       -2.36510        0.59170
C          2.71310       -0.67410       -4.61290
C          2.33200       -0.41790       -3.35800
C          1.05560       -0.97620       -2.80660
O          1.31960       -1.75810       -1.70310
C          3.97420       -0.10570       -5.18230
H          2.09560       -1.30120       -5.24880
H          2.95160        0.20420       -2.72160
H          0.53110       -1.59770       -3.56480
H          0.33600       -0.17310       -2.54360
H          1.27740        1.85340       -0.58250
N          1.25560       -3.19800        1.38660
F          3.65740        0.66090       -6.28670
H          4.64240       -0.93500       -5.49080
H          4.51130        0.53030       -4.44540
