19
TSA8_9_OH_CN_CH2F
C          2.69310       -0.46810       -1.69530
C          1.38090       -1.11320       -1.13440
O          2.63130        0.93070       -1.51890
H          3.59820       -0.86060       -1.18580
C          1.59730       -1.91880        0.08010
C          2.77490       -0.79040       -3.20900
C          1.44950       -0.37690       -3.86840
C          0.25590       -1.00370       -3.11750
O          0.68460       -1.88210       -2.09950
C          4.01800       -0.21280       -3.92260
H          2.83500       -1.89620       -3.32570
H          1.33370        0.72880       -3.90540
H         -0.34720       -1.57080       -3.85600
H         -0.41070       -0.21870       -2.69520
H          2.19890        1.12250       -0.64330
N          1.79130       -2.57930        1.01130
F          3.69090        0.31650       -5.16010
H          4.75460       -1.03010       -4.09530
H          4.52020        0.57440       -3.32130
