19
TSA8_9_CN_CH2F_OH
C          2.61890       -0.86500       -1.11900
C          1.54890       -1.79150       -0.56690
C          2.15660        0.54950       -1.02700
H          3.48870       -0.92400       -0.44020
C          1.67230       -2.37830        0.80390
C          3.06830       -1.25130       -2.58270
C          2.28210       -0.37020       -3.53060
C          1.00050       -0.61520       -3.77970
O          0.65610       -2.21400       -1.28080
O          4.45480       -1.01850       -2.71140
H          2.89420       -2.33420       -2.79590
H          2.69990        0.59590       -3.80630
H          0.54260       -1.53950       -3.46520
H          0.39320        0.13770       -4.25770
N          1.80730        1.64780       -1.02690
F          2.25970       -3.62560        0.72110
H          0.65490       -2.48040        1.23810
H          2.26840       -1.72340        1.47340
H          4.67410       -0.83310       -3.66350
