19
TSA8_9_CN_CH2F_OH
C          1.65470       -0.07920       -0.00150
C          1.50500       -1.38940       -0.33110
C          1.82260        1.03470       -0.89990
H          1.59630        0.19230        1.05610
C          1.49430       -2.37800        0.79500
C          3.29260       -1.72120       -4.32350
C          2.78700       -1.09600       -3.24930
C          1.35510       -1.28680       -2.82470
O          1.31880       -1.89930       -1.58880
O          4.57110       -1.52720       -4.72040
H          2.67600       -2.39990       -4.90240
H          3.42670       -0.43640       -2.67170
H          0.81280       -1.93670       -3.55760
H          0.80590       -0.32470       -2.81140
N          1.95890        1.95810       -1.58370
F          2.14120       -3.55510        0.44310
H          0.44510       -2.59220        1.01620
H          2.00070       -1.96650        1.69860
H          5.18210       -0.92520       -4.27140
