15
TSA8_9_I_OH_Br
C          2.92480        0.94480        1.23100
C          1.39360        1.00640        1.50490
I          3.45300       -0.88160        0.21000
H          3.20690        1.74910        0.51700
O          0.95250        2.31980        1.33020
C          3.65460        1.12320        2.56480
C          3.24560        0.02020        3.55320
C          1.80920       -0.46740        3.28730
O          0.99780        0.58390        2.81320
Br         5.58570        1.22120        2.37840
H          3.31930        2.09560        2.98790
H          3.90900       -0.87050        3.51290
H          1.38840       -0.88370        4.22550
H          1.79080       -1.30460        2.55600
H          0.34660        2.27790        0.54780
