21
TSA8_9_CN_CHF2_CH2F
C          2.99230       -0.61090       -1.17760
C          1.54600       -1.19960       -1.06310
C          2.84650        0.84880       -0.99760
H          3.64410       -0.99250       -0.35880
C          1.43590       -2.33110       -0.03750
C          3.54680       -1.02260       -2.57050
C          2.63590       -0.43200       -3.65060
C          1.16050       -0.66560       -3.30190
O          1.02030       -1.66160       -2.30790
C          5.01930       -0.75550       -2.91470
H          3.45900       -2.13140       -2.61110
H          2.79910        0.66580       -3.77180
H          0.66550       -1.00220       -4.23510
H          0.65220        0.27260       -2.98280
N          2.71740        1.98710       -0.82670
F          2.22910       -3.40200       -0.40860
F          1.81620       -1.88530        1.21500
H          0.37930       -2.66980        0.01890
F          5.30760        0.59340       -2.99680
H          5.21640       -1.21740       -3.91160
H          5.69930       -1.24820       -2.18900
