18
TSA8_9_Cl_CCl3_OH
C          1.93200        0.27470        0.08250
C          1.53660        1.38090        0.77320
Cl         2.25030       -1.32570        0.73960
H          2.06540        0.31390       -0.98930
C          1.26870        2.70260        0.06320
C          3.96560        1.28830        4.26960
C          3.34800        0.77320        3.19590
C          1.84950        0.62570        3.13780
O          1.34410        1.42280        2.12780
O          5.30850        1.43470        4.30050
H          3.39100        1.60260        5.13530
H          3.93760        0.46840        2.33730
H          1.39690        0.97010        4.09050
H          1.53940       -0.42760        3.02150
Cl         2.36810        3.93260        0.73420
Cl         1.49160        2.70280       -1.71500
Cl        -0.40590        3.21460        0.39090
H          5.87610        1.18910        3.55380
