18
TSA8_9_Cl_CCl3_OH
C          3.07760        0.99700        1.17900
C          1.54710        1.32480        1.23260
Cl         3.27520       -0.71850        0.70920
H          3.59730        1.59930        0.40450
C          1.13720        2.54620        0.38870
C          3.70440        1.28280        2.55570
C          2.97520        0.51760        3.67660
C          1.48020        0.37500        3.34650
O          1.05120        1.46910        2.56460
O          5.09090        1.06260        2.58380
H          3.53790        2.36360        2.75390
H          3.37920       -0.50180        3.85980
H          0.89540        0.31550        4.28720
H          1.28250       -0.58030        2.80520
Cl         1.91040        4.04020        0.98490
Cl         1.57030        2.30610       -1.32580
Cl        -0.63100        2.75700        0.46600
H          5.24520        0.09020        2.46130
