15
TSA8_9_CN_Br_Cl
C          1.65050       -0.02710        0.10240
C          1.67960       -1.00290        1.04030
C          1.74500       -0.22640       -1.32880
H          1.46760        0.99140        0.41630
Br         1.36370       -0.53100        2.86920
C          1.92160       -4.81800       -1.56870
C          1.83050       -3.52530       -1.25680
C          1.02970       -3.03620       -0.09140
O          1.84120       -2.32430        0.76760
Cl         2.87150       -5.30820       -2.96060
H          1.41100       -5.57290       -0.97970
H          2.34610       -2.80030       -1.87170
H          0.56740       -3.87880        0.47060
H          0.20080       -2.40220       -0.46520
N          1.81580       -0.34800       -2.47870
