18
TSA8_9_H_CN_Me
C          3.13220        0.27280        1.55040
C          1.70690        0.81110        1.28900
H          3.18740       -0.75790        1.11310
H          3.88080        0.88810        1.00870
C          1.66880        2.07070        0.54410
C          3.37740        0.22370        3.07250
C          2.27580       -0.66170        3.65680
C          0.88260       -0.14820        3.24480
O          0.95010        1.03320        2.48350
C          4.74410       -0.28130        3.49920
H          3.26690        1.26050        3.45320
H          2.39950       -1.70460        3.29170
H          0.35110        0.09040        4.19000
H          0.28940       -0.94030        2.72080
N          1.66590        3.03280       -0.09710
H          5.55390        0.37620        3.11850
H          4.92950       -1.32640        3.17310
H          4.78470       -0.25370        4.60770
