15
TSA8_9_F_I_OH
C          2.03940       -0.19180       -0.35120
C          1.42750       -0.28760       -1.54580
F          2.67470        0.93180        0.06950
H          2.02140       -1.04130        0.32330
I          0.45800       -2.10200       -2.02380
C          4.18820        2.07140       -3.84160
C          3.54910        1.61890       -2.75220
C          2.08420        1.89220       -2.51780
O          1.37280        0.70680       -2.47850
O          5.49940        1.81130       -4.04180
H          3.65700        2.65620       -4.58620
H          4.09870        1.03480       -2.02110
H          1.67580        2.50490       -3.34980
H          1.93020        2.47540       -1.58640
H          6.02670        1.29060       -3.41870
