21
TSA8_9_OH_CF3_Me
C          2.75840        1.71240       -1.57200
C          1.34500        1.30670       -1.02370
O          3.69410        1.71360       -0.52420
H          3.10750        0.99760       -2.35290
C          0.56520        0.43910       -2.01900
C          2.65890        3.12760       -2.16740
C          2.19120        4.12170       -1.08320
C          1.29300        3.42920       -0.04410
O          0.52400        2.41920       -0.65730
C          3.96220        3.59360       -2.82230
H          1.87780        3.09850       -2.95710
H          3.02910        4.59310       -0.52350
H          0.63270        4.18180        0.43340
H          1.89950        2.98840        0.78110
H          3.80970        0.76730       -0.24730
F         -0.64450        0.07390       -1.45790
F          0.32410        1.13290       -3.19100
F          1.27940       -0.70980       -2.30720
H          4.25430        2.88950       -3.63040
H          4.78350        3.64220       -2.07580
H          3.82350        4.60110       -3.26820
