23
TSA8_9_Me_CH2F_CF3
C          1.86930        0.07730       -0.15690
C          1.48040        0.95070       -1.13050
C          2.09310        0.29040        1.31600
H          2.04590       -0.95310       -0.45310
C          1.31990        0.42310       -2.53230
C          3.75810        3.69590       -0.76680
C          2.94650        3.33100        0.23720
C          1.46510        3.19040        0.01450
O          1.21220        2.28600       -0.99700
C          5.23840        3.83030       -0.57220
H          3.34040        3.89540       -1.75100
H          3.35780        3.13150        1.22260
H          1.07110        4.17840       -0.30340
H          0.90500        2.92900        0.93250
H          1.91590        1.29580        1.70080
H          3.14160        0.02190        1.56010
H          1.41900       -0.39100        1.87550
F          0.02190        0.63110       -2.95980
H          1.55030       -0.66060       -2.61760
H          2.01210        0.97300       -3.20390
F          5.77070        2.61720       -0.17440
F          5.82960        4.21350       -1.76190
F          5.50220        4.78680        0.39220
