20
TSA8_9_Br_CHF2_CCl3
C          2.17380        1.92000       -1.43420
C          0.87950        1.53780       -2.10750
Br         2.09840        1.18140        0.37090
H          3.01970        1.41770       -1.95210
C          0.87890        0.59560       -3.28090
C          2.43830        3.45850       -1.38590
C          3.72580        3.69080       -0.61360
C          3.75320        4.37500        0.53520
O         -0.17940        1.97040       -1.67480
C          2.54960        4.15930       -2.77860
H          1.59350        3.93630       -0.83960
H          4.65730        3.28860       -1.00190
H          2.84720        4.79390        0.96230
H          4.69300        4.51810        1.05790
F         -0.41230        0.36760       -3.72410
F          1.62450        1.12300       -4.31780
H          1.32590       -0.37210       -2.97130
Cl         2.93460        5.89340       -2.56690
Cl         3.83180        3.43720       -3.79430
Cl         1.01920        4.12660       -3.69720
