16
TSA8_9_Br_CN_CN
C          2.77090        1.46440        0.63620
C          1.44230        1.63920       -0.15750
Br         2.50110       -0.13140        1.72350
H          3.63950        1.26950       -0.03170
C          1.48980        1.34830       -1.59810
C          2.97340        2.75560        1.47850
C          1.74140        2.97220        2.35510
C          0.45860        2.82800        1.51730
O          0.75320        2.84580        0.13100
C          4.18390        2.88380        2.30190
H          3.03570        3.60220        0.76140
H          1.71000        2.24040        3.19790
H         -0.20750        3.67100        1.78360
H         -0.08980        1.89140        1.77780
N          1.50130        1.12330       -2.73400
N          5.11160        3.06540        2.97090
