23
TSA8_9_CH2F_CCl3_CH2F
C          2.62400       -1.66220       -0.02920
C          1.51900       -1.17240        0.89680
C          2.77930       -0.65500       -1.18830
H          3.57530       -1.64870        0.54710
C          1.82180       -0.79440        2.33180
C          2.35480       -3.14700       -0.44510
C          1.10360       -3.30120       -1.28620
C          0.04810       -4.00570       -0.86670
O          0.37580       -1.07720        0.47180
C          3.53590       -3.82220       -1.16420
H          2.23490       -3.71040        0.50890
H          1.05940       -2.83120       -2.26410
H          0.04660       -4.49500        0.10220
H         -0.82880       -4.09500       -1.49970
F          3.89880       -0.91920       -1.95090
H          2.91370        0.36530       -0.76900
H          1.87770       -0.63840       -1.83520
Cl         2.49320       -2.19660        3.20360
Cl         3.00640        0.53690        2.37540
Cl         0.35600       -0.25590        3.20070
F          3.73340       -3.32340       -2.43800
H          3.32530       -4.90880       -1.26460
H          4.46590       -3.71060       -0.56730
