23
TSA8_9_CH2F_CCl3_CH2F
C          2.59920       -1.74930       -0.04510
C          1.36310       -1.43840        0.87530
C          2.51780       -0.85080       -1.29440
H          3.54050       -1.47590        0.48000
C          1.73690       -0.90820        2.27230
C          2.62430       -3.27660       -0.32770
C          1.28360       -3.74930       -0.92120
C          0.10870       -2.98400       -0.29250
O          0.46130       -2.53790        0.99890
C          3.82150       -3.80530       -1.12920
H          2.70650       -3.74890        0.67730
H          1.21320       -3.64820       -2.02530
H         -0.78020       -3.64590       -0.24540
H         -0.19540       -2.11860       -0.92670
F          3.66740       -0.94190       -2.05460
H          2.42590        0.20920       -0.97550
H          1.63870       -1.09600       -1.92330
Cl         2.65830       -2.12480        3.19870
Cl         2.70220        0.58750        2.14800
Cl         0.25400       -0.51430        3.17940
F          3.77920       -3.40120       -2.45050
H          3.80520       -4.91620       -1.11730
H          4.77170       -3.46860       -0.66340
