15
TSA8_9_F_Cl_CN
C          1.41780       -0.18120        1.94890
C          2.28980        1.03960        1.89670
F          2.07870       -1.32760        1.53910
H          0.68210        0.05350        1.15070
Cl         2.56620        1.77840        0.32010
C          0.61010       -0.39410        3.27960
C         -0.79480       -0.65700        2.87390
C         -1.59730        0.38570        2.62230
O          2.58710        1.66630        2.90200
C          1.14370       -1.42560        4.19480
H          0.61910        0.55940        3.87140
H         -1.12560       -1.66380        2.61240
H         -1.23570        1.40080        2.80020
H         -2.58340        0.24690        2.20820
N          1.48110       -2.26720        4.89510
