15
TSA8_9_F_Cl_CN
C          1.54610       -0.51220        2.17520
C          1.62290        1.00130        1.92170
F          2.80380       -1.07890        2.08670
H          0.87920       -1.01170        1.42840
Cl         2.30340        1.50790        0.35990
C          0.97240       -0.58730        3.58820
C         -0.49840       -0.22220        3.45750
C         -0.67670        1.04900        2.58890
O          0.51890        1.79310        2.36840
C          1.17720       -1.84890        4.30620
H          1.47520        0.16800        4.23340
H         -1.04410       -1.05620        2.94700
H         -1.38440        1.69070        3.15230
H         -1.15690        0.81490        1.61350
N          1.31540       -2.82590        4.91030
