14
TSA8_9_H_Br_Br
C          1.21070       -0.54350       -1.38740
C          1.77980       -1.47140       -0.35010
H          2.04950        0.01440       -1.85650
H          0.53450        0.19190       -0.90030
Br         1.25650       -1.30900        1.48130
C          0.43760       -1.30750       -2.47130
C         -0.74970       -2.02600       -1.88180
C         -0.88120       -3.35350       -1.95450
O          2.58340       -2.33360       -0.66900
Br        -0.19970       -0.06100       -3.81310
H          1.12730       -2.02070       -2.97570
H         -1.51950       -1.44650       -1.37990
H         -0.13200       -3.96710       -2.44510
H         -1.74870       -3.83620       -1.51660
