20
TSA8_9_CHF2_CHF2_I
C          2.60330       -1.05810       -1.14080
C          1.38320       -1.91870       -0.85480
C          2.25920        0.42970       -0.92500
H          3.38530       -1.30990       -0.39000
C          1.38600       -2.88210        0.30140
C          3.23340       -1.31740       -2.53990
C          2.30250       -1.03250       -3.69540
C          2.57020       -0.09070       -4.60510
O          0.37560       -1.80780       -1.53820
I          3.92940       -3.33640       -2.72900
H          4.14300       -0.68220       -2.62270
H          1.39190       -1.61140       -3.80420
H          1.87950        0.08150       -5.42410
H          3.46980        0.51300       -4.54310
F          3.38930        1.21260       -1.08470
F          1.28230        0.86030       -1.80570
H          1.88390        0.57460        0.11090
F          0.16810       -3.53290        0.39830
F          2.38460       -3.82230        0.13630
H          1.56700       -2.32290        1.24280
