20
TSA8_9_CHF2_CHF2_I
C          1.67690       -0.08800       -0.05590
C          1.43980       -1.23530       -0.74430
C          1.86370        1.30880       -0.59780
H          1.71470       -0.14450        1.02870
C          1.18800       -2.51080        0.01550
C          3.90990       -1.99430       -4.61220
C          2.93300       -2.12050       -3.71040
C          2.41550       -0.92910       -2.96050
O          1.40900       -1.33320       -2.10200
I          4.63050       -3.68420       -5.65030
H          4.34910       -1.02390       -4.82310
H          2.51070       -3.10220       -3.51480
H          2.00670       -0.19810       -3.68980
H          3.26210       -0.47170       -2.40070
F          3.13940        1.75200       -0.30550
F          1.62820        1.42900       -1.94940
H          1.13150        1.96980       -0.08920
F         -0.06160       -3.00090       -0.31500
F          2.14600       -3.44520       -0.33130
H          1.22560       -2.36150        1.11590
