20
TSA8_9_NH2_OH_CCl3
C          2.31210        1.08160        1.90050
C          1.10060        1.96150        1.67050
N          2.05270       -0.23940        1.32080
H          3.18630        1.51230        1.36560
O          1.19080        3.08770        0.93150
C          2.68140        0.94320        3.41290
C          3.78300       -0.09500        3.54610
C          3.60240       -1.23350        4.22440
O          0.02130        1.65000        2.15060
C          3.14410        2.27130        4.09740
H          1.77940        0.57850        3.95470
H          4.74540        0.08480        3.07590
H          2.65620       -1.45610        4.70850
H          4.40890       -1.95530        4.29850
H          1.86490       -0.14730        0.29570
H          1.23120       -0.69230        1.78210
H          2.02450        3.37280        0.53310
Cl         3.57260        1.96370        5.80610
Cl         4.57940        2.97600        3.29500
Cl         1.86930        3.52010        4.13950
