20
TSA8_9_NH2_OH_CCl3
C          2.64370        1.36370        1.91400
C          1.38020        0.53770        1.60460
N          3.80880        0.75020        1.26730
H          2.51510        2.38060        1.48430
O          0.20830        1.21620        1.96170
C          2.80200        1.46900        3.45700
C          2.76710        0.05770        4.06870
C          1.49580       -0.66720        3.60380
O          1.42840       -0.75700        2.18810
C          4.02590        2.29460        3.94190
H          1.90090        2.00360        3.83570
H          3.66140       -0.53110        3.77620
H          0.58620       -0.17450        4.01370
H          1.51020       -1.69480        4.02270
H          3.67640        0.77520        0.23000
H          3.91790       -0.24970        1.54890
H         -0.19080        1.49780        1.10010
Cl         3.98390        2.44330        5.72090
Cl         5.59800        1.56610        3.50260
Cl         3.97040        3.95060        3.27670
