20
TSA8_9_CCl3_Me_Br
C          1.43180       -0.42230       -0.12530
C          2.03710       -1.45870        0.51950
C          2.03480        0.43430       -1.22020
H          0.42440       -0.15580        0.16630
C          3.44800       -1.90600        0.23600
C         -0.87030       -4.04150        3.18900
C         -0.29500       -3.69380        2.03320
C          0.03080       -2.26560        1.70690
O          1.39440       -2.16000        1.49790
Br        -1.26000       -5.87550        3.56120
H         -1.12560       -3.29440        3.93440
H         -0.05200       -4.46160        1.30450
H         -0.26380       -1.58910        2.53800
H         -0.54680       -1.99960        0.79820
Cl         2.43170       -0.54620       -2.65720
Cl         0.84840        1.66580       -1.73120
Cl         3.48080        1.30690       -0.64240
H          3.42980       -2.97110       -0.07590
H          4.04990       -1.81670        1.16350
H          3.96000       -1.33520       -0.55740
