20
TSA8_9_CCl3_Me_Br
C          1.11970       -1.47670       -0.00810
C          1.95480       -1.06180        1.27690
C          1.87210       -1.26520       -1.36630
H          0.25350       -0.78210       -0.05970
C          3.39400       -1.58820        1.32210
C          0.56410       -2.90210        0.26400
C         -0.30210       -2.89000        1.53930
C         -0.02110       -1.66970        2.42790
O          1.36040       -1.42190        2.52750
Br        -0.46830       -3.75740       -1.15080
H          1.43150       -3.56870        0.44810
H         -1.39010       -2.85890        1.31220
H         -0.43980       -1.85940        3.43800
H         -0.53710       -0.75870        2.04850
Cl         3.12060       -2.50500       -1.69210
Cl         0.74630       -1.27950       -2.75260
Cl         2.62800        0.35410       -1.41310
H          3.41420       -2.69740        1.33450
H          3.88490       -1.22160        2.24810
H          3.99670       -1.20400        0.47860
