22
TSA8_9_CHF2_CBr3_NH2
C          2.67300       -1.64030       -0.48200
C          1.36330       -2.31190       -0.09190
C          2.39460       -0.19280       -0.94050
H          3.30240       -1.54220        0.43040
C          1.05540       -2.67160        1.35120
C          3.51560       -2.49920       -1.48710
C          2.87370       -2.76290       -2.84050
C          2.75400       -1.82920       -3.78920
O          0.53290       -2.54000       -0.96020
N          3.85710       -3.77950       -0.86060
H          4.47940       -1.97300       -1.67130
H          2.53970       -3.76920       -3.07860
H          2.30910       -2.08490       -4.74580
H          3.11390       -0.81820       -3.63940
F          3.57260        0.44110       -1.29270
F          1.49790       -0.13540       -1.99130
H          1.94060        0.37160       -0.09850
Br         1.07560       -1.07890        2.45610
Br        -0.70170       -3.48590        1.53430
Br         2.35210       -3.92350        2.06460
H          4.54830       -4.28820       -1.45900
H          3.00570       -4.38000       -0.76900
