22
TSA8_9_CHF2_CBr3_NH2
C          2.98170       -1.51080       -0.54660
C          1.51960       -2.06580       -0.49600
C          2.93660        0.00720       -0.82340
H          3.49010       -1.63440        0.43480
C          1.00120       -2.45510        0.90170
C          3.81910       -2.26680       -1.61140
C          3.04730       -2.37230       -2.94550
C          1.53920       -2.59820       -2.72380
O          1.28910       -3.10870       -1.43170
N          4.17340       -3.60330       -1.11460
H          4.78280       -1.73900       -1.78170
H          3.50930       -3.16110       -3.57920
H          1.14110       -3.29060       -3.49450
H          0.98520       -1.64370       -2.87660
F          4.21640        0.53300       -0.80980
F          2.34960        0.29160       -2.04320
H          2.35110        0.51880       -0.03220
Br         1.15870       -0.99440        2.16970
Br        -0.87920       -2.90930        0.78140
Br         1.95110       -3.99350        1.60770
H          4.85350       -4.05260       -1.76930
H          3.34590       -4.23140       -1.02710
