23
TSA8_9_CF3_Et_Cl
C          2.65840       -1.12970        0.49360
C          1.31970       -1.44920        1.14070
C          2.43640       -0.22950       -0.74810
H          3.23460       -0.52790        1.23040
C          1.03620       -1.05020        2.56700
C          3.52920       -2.40020        0.21910
C          3.02340       -3.34300       -0.85210
C          1.96890       -4.14580       -0.68420
O          0.43240       -1.98490        0.49390
Cl         5.19880       -1.91420       -0.21020
H          3.64520       -2.97530        1.16360
H          3.56570       -3.41180       -1.79100
H          1.41330       -4.16910        0.24510
H          1.66860       -4.81630       -1.48290
F          3.63920        0.19650       -1.27860
F          1.73320       -0.90570       -1.72980
F          1.71340        0.89310       -0.38260
C          1.95590       -1.77820        3.54440
H         -0.01520       -1.30540        2.82530
H          1.16450        0.04790        2.67450
H          1.81790       -2.87680        3.45290
H          1.70810       -1.47340        4.58300
H          3.02020       -1.52900        3.35290
