23
TSA8_9_CF3_Et_Cl
C          2.83200       -0.89830        0.35400
C          1.40750       -1.29140        0.80540
C          2.72760       -0.12170       -0.98490
H          3.27260       -0.18360        1.08370
C          1.02780       -1.20330        2.29900
C          3.70630       -2.17890        0.31900
C          3.02710       -3.27690       -0.49360
C          1.62280       -3.52200        0.07340
O          0.81820       -2.35400        0.06380
Cl         5.37050       -1.89760       -0.26380
H          3.81220       -2.56990        1.34970
H          2.97330       -3.01190       -1.56790
H          1.67590       -3.96090        1.08560
H          1.13160       -4.28850       -0.56120
F          3.97410        0.29490       -1.41290
F          2.13920       -0.87430       -1.98410
F          1.95150        1.00770       -0.78990
C          1.84150       -2.06110        3.26610
H         -0.05060       -1.44770        2.40450
H          1.16200       -0.14510        2.60990
H          1.72690       -3.14070        3.06480
H          1.47770       -1.87940        4.29940
H          2.91190       -1.77520        3.23630
