17
TSA8_9_CF3_H_Cl
C          1.75900        1.05870        1.84410
C          1.28730        1.66090        0.50730
C          1.50130       -0.47010        1.85570
H          2.85980        1.19270        1.92860
H          1.65710        2.70100        0.35720
C          1.08330        1.87340        2.97740
C         -0.43270        1.93330        2.78160
C         -0.72780        2.43500        1.36060
O         -0.12520        1.59990        0.38410
Cl         1.49080        1.29720        4.61750
H          1.45880        2.91890        2.91150
H         -0.89430        0.93790        2.93950
H         -0.39620        3.49090        1.23530
H         -1.82680        2.42870        1.20680
F          2.19150       -1.05110        0.80600
F          1.96470       -1.03540        3.02920
F          0.16190       -0.77890        1.71110
