22
TSA8_9_CF3_NO2_CBr3
C          2.47230        1.04590        1.43020
C          1.61580        1.60150        0.29200
C          2.37650       -0.50140        1.38260
H          3.52550        1.30010        1.20530
N          2.17920        2.20040       -0.79720
C          2.08420        1.77210        2.77890
C          0.80600        1.20200        3.36910
C         -0.33540        1.89240        3.42950
O          0.39790        1.49330        0.35840
C          3.19120        1.86460        3.87960
H          1.92220        2.83830        2.49840
H          0.81650        0.19050        3.76250
H         -0.40320        2.90580        3.04880
H         -1.21790        1.43210        3.86290
F          3.20380       -1.09960        2.30480
F          1.07860       -0.93850        1.59030
F          2.77420       -0.93940        0.13120
O          1.48380        2.62230       -1.67360
O          3.48460        2.30250       -0.91660
Br         2.58460        3.04040        5.30710
Br         3.68190        0.19920        4.74740
Br         4.81160        2.68730        3.18560
