23
TSA8_9_CHF2_Me_CH2F
C          2.84030        0.63920        1.20850
C          1.43910        1.21810        1.14600
C          2.87700       -0.68030        0.40150
H          3.51230        1.35210        0.67890
C          1.19740        2.53280        0.46610
C          3.33070        0.58100        2.69550
C          2.52240       -0.36740        3.55850
C          1.78610        0.06210        4.58810
O          0.49680        0.61780        1.64240
C          4.82660        0.25440        2.84890
H          3.21720        1.61960        3.08410
H          2.54340       -1.43150        3.34820
H          1.73470        1.11590        4.84320
H          1.22500       -0.64860        5.18580
F          4.16450       -1.15580        0.25450
F          2.08120       -1.65840        0.96910
H          2.49380       -0.48100       -0.62280
H          1.79030        3.32570        0.96830
H          0.12170        2.80760        0.51010
H          1.50580        2.46370       -0.59800
F          5.11290       -1.05950        2.52790
H          5.12490        0.40840        3.90840
H          5.43780        0.93730        2.22150
