23
TSA8_9_CHF2_Me_CH2F
C          2.95400        0.50310        1.15820
C          1.45980        0.90170        1.20040
C          3.06130       -0.93540        0.59770
H          3.47430        1.14810        0.41550
C          1.17850        2.41130        1.15820
C          3.56980        0.76130        2.56690
C          2.72770        0.08270        3.65350
C          1.26380        0.51590        3.51180
O          0.74260        0.21980        2.22400
C          5.05580        0.40120        2.71360
H          3.50830        1.85740        2.74420
H          2.80270       -1.02150        3.58830
H          1.14060        1.59110        3.75780
H          0.66840       -0.03700        4.26760
F          4.37660       -1.28930        0.36710
F          2.46240       -1.87470        1.41600
H          2.54730       -0.96880       -0.38720
H          1.58390        2.94510        2.04000
H          0.08290        2.58000        1.10670
H          1.64160        2.84710        0.24860
F          5.26420       -0.96540        2.67450
H          5.42200        0.76510        3.69750
H          5.65140        0.89760        1.91850
