23
TSA8_9_Et_CN_NO2
C          1.63850        0.09150       -0.09890
C          1.33010        1.40600       -0.24390
C          1.78570       -0.76600        1.13480
H          1.83900       -0.46420       -1.01380
C          1.32730        1.90650       -1.59650
C          2.18830        3.27550        3.78160
C          2.00920        2.29870        2.87640
C          0.74510        2.18890        2.06550
O          1.02810        2.32420        0.72220
N          3.38430        3.38720        4.54680
H          1.40210        4.01020        3.94250
H          2.79100        1.56590        2.71210
H          0.04470        3.00730        2.33930
H          0.17610        1.26300        2.26630
C          3.22190       -1.27200        1.18510
H          1.09000       -1.63030        1.04900
H          1.57680       -0.27490        2.09120
H          3.47800       -1.80830        0.24510
H          3.36010       -1.96620        2.03920
H          3.91200       -0.40910        1.30530
N          1.32290        2.30550       -2.68090
O          4.28030        2.61240        4.40720
O          3.50570        4.36460        5.42010
