17
TSA8_9_CF3_I_F
C          1.62910       -1.40620        0.94300
C          0.75220       -0.20600        1.22600
C          1.65090       -1.70810       -0.57280
H          2.66350       -1.11730        1.23140
I          1.58200        1.52380        2.10820
C          1.29030       -2.65510        1.81250
C         -0.06980       -3.27830        1.59490
C         -1.20580       -2.72230        2.02530
O         -0.42300       -0.18560        0.89820
F          2.24450       -3.62730        1.56220
H          1.38480       -2.39460        2.88940
H         -0.12570       -4.24830        1.10860
H         -1.20830       -1.78140        2.56320
H         -2.15220       -3.22730        1.86160
F          2.55230       -2.71960       -0.85270
F          0.39840       -2.09010       -1.02090
F          2.04470       -0.57740       -1.26780
