26
TSA8_9_Me_CF3_Et
C          2.97670       -0.82720       -0.28570
C          1.57500       -1.38910        0.08290
C          2.74480        0.43970       -1.12620
H          3.48190       -0.54710        0.66440
C          1.27660       -1.71170        1.55870
C          3.83930       -1.87530       -1.05780
C          3.40640       -3.27310       -0.62850
C          1.92370       -3.47680       -1.00030
O          1.07210       -2.34600       -0.82900
C          5.36640       -1.75020       -0.82750
H          3.62260       -1.81080       -2.14890
H          3.58590       -3.39410        0.45690
H          1.51480       -4.35990       -0.46650
H          1.91090       -3.70780       -2.08630
H          2.19320        0.18770       -2.05780
H          3.68040        0.94610       -1.41600
H          2.13740        1.16900       -0.54830
F         -0.07250       -1.97920        1.69670
F          1.98850       -2.80240        2.01170
F          1.58730       -0.61700        2.34440
C          5.98600       -0.42460       -1.25640
H          5.86650       -2.55560       -1.40970
H          5.60040       -1.90960        0.24850
H          5.76860       -0.22150       -2.32620
H          7.08680       -0.47620       -1.12000
H          5.62120        0.40340       -0.61760
