24
TSA8_9_CCl3_CHF2_OMe
C          1.39510       -0.61000        0.16090
C          1.95720       -0.62630        1.40110
C          2.12880       -0.64480       -1.16440
H          0.31720       -0.55180        0.08940
C          3.44440       -0.68410        1.64480
C         -0.18070       -3.42550        3.76350
C          0.11590       -2.67060        2.68840
C         -0.05580       -1.17380        2.70100
O          1.18470       -0.58620        2.52560
O          0.01060       -4.77250        3.81030
H         -0.58190       -2.94820        4.65260
H          0.51620       -3.12230        1.78750
H         -0.45950       -0.84020        3.68040
H         -0.78160       -0.85130        1.92830
Cl         3.04040       -2.16710       -1.34980
Cl         0.94760       -0.56520       -2.49870
Cl         3.21690        0.75960       -1.34490
F          3.83250        0.42640        2.36930
F          3.72870       -1.82150        2.37860
H          4.04890       -0.72290        0.72330
C          0.61160       -5.53760        2.83130
H          0.64200       -6.59530        3.16590
H          1.65220       -5.19220        2.66290
H          0.03090       -5.48100        1.88510
