17
TSA8_9_CF3_Cl_F
C          1.66490       -1.32900        1.00040
C          0.84800       -0.06690        1.17640
C          1.65350       -1.77240       -0.48050
H          2.71620       -1.06540        1.25190
Cl         1.61810        1.39920        1.76380
C          1.27990       -2.47380        1.98580
C         -0.10760       -3.05570        1.83390
C         -1.21620       -2.41310        2.21240
O         -0.32950       -0.02410        0.85800
F          2.18890       -3.50630        1.82430
H          1.39510       -2.11780        3.03300
H         -0.20800       -4.06450        1.44290
H         -1.17590       -1.42620        2.65770
H         -2.18370       -2.89150        2.10050
F          2.50110       -2.84890       -0.67190
F          0.37840       -2.13230       -0.88000
F          2.09190       -0.73260       -1.28210
