20
TSA8_9_OMe_NO2_Br
C          0.67270       -0.60470       -1.23960
C          1.58830       -1.26520       -0.21890
O          1.44280        0.20950       -2.10830
H         -0.13170       -0.01100       -0.74350
N          1.41120       -1.08860        1.12030
C         -0.05260       -1.67280       -2.08150
C         -0.93290       -2.53850       -1.21440
C         -0.75650       -3.85930       -1.11900
O          2.50620       -1.96830       -0.62260
Br        -1.17640       -0.82320       -3.41930
H          0.70210       -2.28860       -2.62040
H         -1.73500       -2.07230       -0.64910
H          0.03440       -4.36260       -1.66630
H         -1.41060       -4.44770       -0.48370
C          1.66820        1.47640       -1.52730
H          2.25720        2.08760       -2.24120
H          2.26760        1.39190       -0.59440
H          0.71330        2.01940       -1.35100
O          2.14640       -1.61880        1.89820
O          0.43190       -0.33710        1.57710
