20
TSA8_9_OMe_NO2_Br
C          1.41060        0.12090        0.07950
C          1.10140       -1.17970        0.20480
O          1.47010        0.68040       -1.15280
H          1.59530        0.73400        0.95740
N          1.01880       -1.78800        1.50190
C         -0.89530       -3.41340       -3.37380
C         -0.86660       -2.63160       -2.29000
C          0.00630       -2.93880       -1.10860
O          0.88150       -1.88510       -0.93880
Br        -2.01120       -2.96170       -4.85840
H         -0.28620       -4.31000       -3.43320
H         -1.48440       -1.73860       -2.25920
H          0.58740       -3.87200       -1.27140
H         -0.65790       -3.07200       -0.22920
C          1.67240        2.02710       -1.34370
H          1.68540        2.24040       -2.43240
H          2.64280        2.33740       -0.90180
H          0.84440        2.60370       -0.87760
O          0.87000       -2.96670        1.61100
O          1.20100       -1.06890        2.58980
