21
TSA8_9_NH2_Me_NO2
C          2.86340       -0.92050       -0.83020
C          1.32190       -1.19520       -0.93630
N          3.13730        0.51800       -0.73580
H          3.27450       -1.38190        0.09630
C          0.90460       -2.30600        0.02630
C          3.55990       -1.56090       -2.04590
C          2.97280       -1.01620       -3.36180
C          1.46550       -0.73690       -3.22070
O          0.89510       -1.58010       -2.24550
N          5.00260       -1.41650       -2.00500
H          3.30820       -2.64570       -2.00740
H          3.45900       -0.08500       -3.72490
H          0.97440       -0.89790       -4.20230
H          1.25970        0.32540       -2.96250
H          2.78640        1.04620       -1.56290
H          2.67150        0.90120        0.11880
H          1.41980       -3.25550       -0.23520
H         -0.19250       -2.46280       -0.03600
H          1.15990       -2.02600        1.07000
O          5.50900       -0.33550       -2.04450
O          5.76580       -2.48470       -1.93030
