22
TSA8_9_CCl3_OMe_OH
C          1.07830       -0.93450        1.37770
C          2.33870       -0.74250        2.21540
C          1.40350       -1.13670       -0.14670
H          0.50080        0.01340        1.45210
O          3.57230       -0.90840        1.67020
C          0.23650       -2.07370        2.04490
C         -1.12730       -2.29810        1.44340
C         -2.06620       -1.34580        1.43060
O          2.22700       -0.44810        3.39820
O          0.95270       -3.28430        2.01010
H          0.04670       -1.77670        3.10650
H         -1.36480       -3.26960        1.01890
H         -1.87650       -0.36470        1.85220
H         -3.03780       -1.55210        0.99380
Cl         2.35280       -2.61690       -0.47650
Cl        -0.06040       -1.19980       -1.16550
Cl         2.33330        0.26100       -0.76530
C          4.74890       -0.82000        2.38130
H          5.60220       -0.99500        1.69450
H          4.76880       -1.59220        3.17960
H          4.85140        0.19060        2.83220
H          1.06910       -3.59620        2.94560
