22
TSA8_9_CCl3_OMe_OH
C          1.03370       -1.58720        0.53270
C          1.32830       -0.18220        1.12130
C          2.12040       -2.07650       -0.47250
H          0.09030       -1.47070       -0.04670
O          2.66550        0.26910        1.26900
C          0.72760       -2.55210        1.70040
C         -0.37040       -1.92150        2.56490
C          0.07900       -0.54630        3.07130
O          0.36910        0.36060        2.01710
O          0.27580       -3.79020        1.22180
H          1.64580       -2.70130        2.30970
H         -1.30510       -1.80910        1.97170
H          0.93250       -0.65270        3.76860
H         -0.75360       -0.12240        3.67060
Cl         1.60680       -3.56060       -1.32230
Cl         2.38810       -0.84520       -1.73910
Cl         3.68650       -2.42290        0.31420
C          3.16840        0.02480        2.55870
H          4.25630        0.24020        2.54890
H          3.07120       -1.03900        2.85420
H          2.71220        0.71720        3.29780
H          0.33320       -4.42830        1.98020
