24
TSA8_9_CHF2_CN_Et
C          2.42450       -1.50180        1.14750
C          1.22720       -0.54750        1.48530
C          2.37330       -1.71580       -0.38440
H          3.38460       -0.97810        1.37260
C          1.62630        0.85450        1.67350
C          2.30950       -2.74000        2.11980
C          0.89060       -3.32480        2.07660
C         -0.16640       -2.21350        2.13820
O          0.41570       -0.99570        2.55880
C          3.36760       -3.86470        2.32870
H          2.39900       -2.22780        3.10420
H          0.69940       -3.97300        1.19240
H         -0.94920       -2.53130        2.85430
H         -0.67330       -2.08390        1.15210
F          3.54640       -2.25820       -0.86800
F          1.30220       -2.50510       -0.75990
H          2.24340       -0.72180       -0.88020
N          1.90710        1.96720        1.82620
C          3.35730       -5.08740        1.40830
H          3.12020       -4.29710        3.32850
H          4.39250       -3.44590        2.41580
H          2.34960       -5.55250        1.36860
H          4.02860       -5.85920        1.85520
H          3.71700       -4.84880        0.39210
