22
TSA8_9_CCl3_NH2_CCl3
C          1.44020       -0.22860        0.24340
C          2.12110       -0.15770        1.41800
C          1.93460       -0.88420       -1.02890
H          0.46300        0.23480        0.19090
N          3.42560       -0.70210        1.56530
C          0.74060        0.69750        5.27100
C          0.10510        0.05940        4.27090
C          0.24650        0.53850        2.85720
O          1.58470        0.45650        2.50800
C          0.70280        0.28880        6.72480
H          1.33640        1.57400        5.02770
H         -0.50950       -0.81450        4.45530
H         -0.09920        1.59130        2.78380
H         -0.38920       -0.09840        2.20580
Cl         2.19190       -2.63190       -0.77990
Cl         0.70970       -0.69960       -2.31130
Cl         3.43490       -0.11510       -1.61480
H          3.90210       -0.62460        2.47440
H          3.91370       -1.19960        0.81050
Cl         0.01110        1.62220        7.67780
Cl        -0.24320       -1.19170        7.06030
Cl         2.37390        0.00940        7.27030
