21
TSA8_9_Me_OH_CBr3
C          1.84090       -0.12470       -0.10500
C          1.55090       -0.94660       -1.15420
C          1.87420        1.37590       -0.00720
H          2.07210       -0.60920        0.84100
O          1.55810       -2.27960       -0.92900
C          3.64990        0.80390       -4.37910
C          2.97550        0.82710       -3.21790
C          1.49010        0.57910       -3.15100
O          1.24780       -0.57430       -2.43750
C          5.14280        1.00030       -4.43130
H          3.11300        0.62260       -5.30610
H          3.51380        1.00280       -2.29260
H          1.08510        0.42590       -4.17590
H          0.92270        1.43880       -2.75640
H          1.61010        1.93200       -0.90670
H          2.89120        1.69600        0.29850
H          1.15850        1.68750        0.78240
H          1.77260       -2.67650       -0.07020
Br         5.75960        0.89630       -6.26610
Br         5.63880        2.73320       -3.71630
Br         6.03700       -0.39090       -3.41570
