17
TSA8_9_Br_CCl3_I
C          1.81990       -0.16350       -0.11170
C          1.52520       -1.10120       -1.04780
Br         2.08180        1.70700       -0.46400
H          1.88460       -0.41980        0.93740
C          1.25420       -2.55250       -0.68460
C          3.64750       -0.35940       -5.17510
C          2.77570       -0.85240       -4.29150
C          2.32180       -0.04460       -3.11270
O          1.43180       -0.80040       -2.37350
I          4.26850       -1.52660       -6.81930
H          4.04980        0.64240       -5.05920
H          2.39120       -1.85900       -4.42920
H          1.81480        0.87660       -3.47070
H          3.21820        0.22500       -2.51330
Cl         2.43370       -3.57950       -1.53730
Cl         1.35770       -2.94790        1.05890
Cl        -0.37810       -2.99790       -1.24140
