17
TSA8_9_Br_CCl3_I
C          3.23170       -0.95420       -1.86790
C          1.79590       -1.50970       -2.03630
Br         3.31270        0.42680       -0.48330
H          3.96940       -1.72290       -1.55990
C          1.28900       -2.47440       -0.94490
C          3.66730       -0.36340       -3.22700
C          2.46370        0.10700       -4.06900
C          1.31090        0.55280       -3.15890
O          0.85080       -0.46240       -2.26200
I          4.74250       -1.81740       -4.38920
H          4.38580        0.46440       -3.04920
H          2.05650       -0.75090       -4.64870
H          0.46390        0.85150       -3.81160
H          1.61870        1.44850       -2.58020
Cl         2.40450       -3.85230       -0.74990
Cl         1.05590       -1.68630        0.63770
Cl        -0.28440       -3.13740       -1.45560
