20
TSA8_9_Br_CH2F_CH2F
C          1.84300        0.19020       -0.01280
C          1.48090        1.45060        0.29250
Br         2.04200       -1.19350        1.29990
H          2.00960       -0.09620       -1.04660
C          1.28890        2.47040       -0.79640
C          2.58950        4.43400        2.00950
C          3.11290        3.20650        2.13790
C          2.25370        2.03100        2.51370
O          1.25410        1.83100        1.57670
C          3.44110        5.60690        1.63290
H          1.52700        4.59100        2.17620
H          4.17530        3.04820        1.97260
H          1.78610        2.23360        3.50030
H          2.88590        1.12610        2.61340
F         -0.00860        2.94570       -0.76070
H          1.48570        2.04650       -1.80470
H          1.98760        3.31670       -0.63590
F          4.42780        5.79970        2.58280
H          2.81270        6.52020        1.57470
H          3.91020        5.43080        0.64190
