22
TSA8_9_NO2_CF3_CBr3
C          1.64600       -0.00260        0.04210
C          1.46030        0.17830        1.37990
N          1.80570       -1.25870       -0.61670
H          1.64500        0.87370       -0.60000
C          1.20170        1.55880        1.93930
C          4.16770       -2.32220        4.20580
C          3.14960       -1.54780        3.80270
C          2.51330       -1.74400        2.45940
O          1.49420       -0.82170        2.30370
C          4.83290       -2.12470        5.54260
H          4.52670       -3.10920        3.54760
H          2.78190       -0.75630        4.45130
H          2.09450       -2.77110        2.39940
H          3.30030       -1.61080        1.68380
O          2.01390       -1.27020       -1.79160
O          1.53750       -2.39410       -0.01240
F         -0.01860        1.55980        2.58900
F          2.19340        1.86750        2.85180
F          1.18050        2.54060        0.96270
Br         6.25320       -3.42290        5.77240
Br         5.61020       -0.35010        5.65460
Br         3.55690       -2.35570        6.98550
