23
TSA8_9_CHF2_Br_Et
C          2.61430       -0.86220        1.45190
C          1.55640        0.22250        1.39700
C          2.61550       -1.57660        0.07400
H          3.58880       -0.34040        1.57080
Br         2.06240        2.06240        1.53070
C          2.39060       -1.72800        2.74440
C          1.20660       -2.66750        2.62940
C          0.10930       -2.52620        3.37960
O          0.37380       -0.05760        1.27040
C          3.62700       -2.46830        3.32900
H          2.17850       -0.98030        3.54490
H          1.24570       -3.48890        1.92160
H          0.02190       -1.72330        4.10450
H         -0.71490       -3.22320        3.26840
F          3.63520       -2.48410       -0.06760
F          1.41010       -2.20530       -0.18350
H          2.76820       -0.81060       -0.71720
C          4.18380       -3.67850        2.58090
H          3.32250       -2.84380        4.33180
H          4.45090       -1.73940        3.49080
H          3.39530       -4.43600        2.39480
H          4.97050       -4.14980        3.20760
H          4.68640       -3.39090        1.64740
