23
TSA8_9_CHF2_Br_Et
C          1.84260        0.05870        0.15830
C          1.42180        0.49590        1.37730
C          1.89570       -1.29470       -0.51810
H          2.21690        0.83750       -0.50050
Br         1.54810        2.38520        1.66970
C          2.64690       -2.59720        4.11640
C          2.23500       -2.09930        2.93920
C          0.84700       -1.53470        2.75970
O          0.91100       -0.19660        2.43950
C          4.03670       -3.14180        4.31200
H          1.97360       -2.60130        4.96960
H          2.92020       -2.08860        2.09860
H          0.28690       -1.61660        3.71560
H          0.23190       -2.08870        2.03090
F          3.20700       -1.57850       -0.84810
F          1.38460       -2.35270        0.18430
H          1.30980       -1.22130       -1.45820
C          4.30530       -4.35880        3.42950
H          4.15410       -3.44660        5.37420
H          4.78060       -2.34610        4.09130
H          3.57820       -5.16660        3.65920
H          5.33110       -4.73680        3.62480
H          4.22930       -4.09320        2.35430
