23
TSA8_9_CHF2_Br_Et
C          2.60400       -0.83980        1.76050
C          1.17460       -0.25260        1.66170
C          2.91860       -1.53810        0.42850
H          3.33170       -0.00560        1.87480
Br         1.10810        1.52980        0.89970
C          2.69820       -1.69710        3.06620
C          1.42880       -2.54140        3.30740
C          0.15120       -1.71970        3.02740
O          0.45230       -0.34540        2.86950
C          4.01700       -2.46330        3.34380
H          2.66450       -0.92040        3.86590
H          1.38560       -3.48000        2.71740
H         -0.55940       -1.85800        3.86730
H         -0.37470       -2.11000        2.12180
F          4.25880       -1.86400        0.34850
F          2.13620       -2.66530        0.25640
H          2.71830       -0.83570       -0.40980
C          4.16990       -3.83170        2.66450
H          4.06070       -2.67190        4.43600
H          4.87830       -1.80590        3.09600
H          3.38260       -4.53160        3.01160
H          5.14930       -4.26760        2.95290
H          4.13210       -3.78840        1.56530
