21
TSA8_9_CN_CCl3_CCl3
C          1.69880        0.06000        0.10980
C          1.55110        0.68080        1.31530
C          1.80600       -1.35200       -0.15780
H          1.66630        0.70340       -0.76240
C          1.58210        2.19780        1.31880
C          3.46030       -1.20130        4.37870
C          2.91370       -1.51780        3.18670
C          1.46000       -1.25970        2.89060
O          1.29420        0.05930        2.51690
C          4.92700       -1.37410        4.72800
H          2.82850       -0.75960        5.14550
H          3.52420       -1.93640        2.40000
H          0.86350       -1.47080        3.80790
H          1.06100       -1.95120        2.12890
N          1.89350       -2.47980       -0.39600
Cl         2.71830        2.90660        0.11320
Cl        -0.03790        2.81140        0.99040
Cl         2.12990        2.80300        2.90110
Cl         5.10720       -2.11190        6.34350
Cl         5.87390       -2.35950        3.57170
Cl         5.63820        0.25160        4.78170
