22
TSA8_9_CF3_NH2_CCl3
C          2.23740       -2.29210       -0.27470
C          0.78400       -1.90040       -0.73090
C          3.17430       -1.06490       -0.39240
H          2.20690       -2.52330        0.81290
N         -0.18210       -2.08650        0.34870
C          2.65330       -3.58790       -1.03910
C          2.49720       -3.39850       -2.56500
C          1.28900       -2.51190       -2.89960
O          0.32340       -2.60750       -1.87870
C          3.99480       -4.28070       -0.66560
H          1.86380       -4.31710       -0.74520
H          3.38860       -2.98140       -3.07890
H          0.85780       -2.83240       -3.86950
H          1.58240       -1.44780       -3.04700
F          4.37860       -1.31030        0.23410
F          3.41390       -0.71420       -1.70700
F          2.59410        0.01590        0.24910
H         -0.19050       -3.09200        0.63660
H          0.09510       -1.49840        1.16770
Cl         4.04740       -5.90200       -1.41360
Cl         5.44620       -3.40960       -1.23820
Cl         4.12140       -4.51850        1.09920
