24
TSA8_9_Et_OH_CCl3
C          2.63510        1.23390        0.39110
C          1.45680        1.22650       -0.58300
C          2.43200       -0.06030        1.24090
H          3.55300        1.13300       -0.22540
O          1.66090        1.13040       -1.91400
C          2.71940        2.60400        1.19390
C          2.03970        3.72450        0.40550
C          0.96560        4.37430        0.86670
O          0.31200        1.30970       -0.16320
C          4.17550        3.12400        1.50750
H          2.15510        2.47410        2.14440
H          2.43230        4.00560       -0.56740
H          0.51320        5.16140        0.27230
H          0.53060        4.13150        1.83120
C          3.50070       -0.44170        2.24850
H          2.36740       -0.91500        0.52950
H          1.46540       -0.00340        1.78980
H          4.49320       -0.51310        1.75570
H          3.25520       -1.43630        2.67810
H          3.49690        0.26920        3.09490
H          2.54820        1.06460       -2.29410
Cl         5.10860        3.41470        0.00690
Cl         4.09090        4.67760        2.39410
Cl         5.19110        2.08600        2.52510
