24
TSA8_9_Et_OH_CCl3
C          2.51610        1.47130        0.59780
C          1.13810        1.50040       -0.12790
C          2.64210        0.16290        1.43240
H          3.28280        1.44710       -0.20920
O          0.92690        0.33560       -0.87060
C          2.60440        2.81300        1.42790
C          2.34830        3.98330        0.45750
C          1.01080        3.78360       -0.25070
O          1.05160        2.60020       -1.00880
C          3.88700        3.10560        2.26330
H          1.76080        2.82400        2.15550
H          3.16440        4.05690       -0.29450
H          0.84370        4.63900       -0.93770
H          0.16060        3.77490        0.47000
C          4.08180       -0.35240        1.56430
H          2.14080       -0.67450        0.90390
H          2.12680        0.27250        2.41020
H          4.49600       -0.56300        0.55510
H          4.08020       -1.30120        2.14160
H          4.77220        0.34290        2.05810
H          0.08120       -0.03790       -0.51470
Cl         5.37430        2.94900        1.28550
Cl         3.84510        4.77500        2.91120
Cl         3.98390        2.08510        3.72650
