20
TSA8_9_CH2F_Cl_CHF2
C          1.49360       -1.67630        1.69840
C          1.17790       -0.21770        1.44230
C          1.42770       -2.45720        0.37180
H          2.54490       -1.72620        2.05820
Cl         2.39210        1.01340        1.75210
C          0.58410       -2.24170        2.83790
C         -0.88620       -2.22590        2.47000
C         -1.77680       -1.49140        3.14420
O          0.08770        0.12130        1.00780
C          0.97360       -3.66220        3.29430
H          0.75130       -1.58310        3.72140
H         -1.23440       -2.83040        1.63790
H         -1.47620       -0.87300        3.98450
H         -2.82220       -1.50610        2.85400
F          2.28530       -1.88760       -0.55380
H          0.40040       -2.44730       -0.04800
H          1.74840       -3.50680        0.51270
F          0.73420       -4.60850        2.31450
F          2.30750       -3.70500        3.66010
H          0.36370       -3.93710        4.18150
