18
TSA8_9_CH2F_CN_I
C          1.29460       -0.29130       -1.66670
C          2.29490       -1.37200       -1.34630
C          1.77910        1.09670       -1.19680
H          0.38800       -0.53060       -1.06650
C          1.86970       -2.48680       -0.53250
C          0.87640       -0.34570       -3.16690
C         -0.56930        0.05560       -3.32590
C         -1.53730       -0.76940       -2.89760
O          3.40200       -1.38280       -1.86080
I          2.12820        0.73710       -4.54700
H          0.92370       -1.39420       -3.53720
H         -0.83970        0.99030       -3.80490
H         -1.28630       -1.72780       -2.44440
H         -2.58340       -0.51220       -3.01070
F          3.03130        1.40090       -1.70530
H          1.86070        1.11060       -0.08980
H          1.06080        1.88600       -1.50300
N          1.52320       -3.38930        0.10320
