18
TSA8_9_CH2F_CN_I
C          1.10990        0.18430       -1.85950
C          1.47660       -1.28280       -1.42420
C          2.08350        1.22320       -1.28750
H          0.09690        0.47900       -1.50240
C          1.30640       -1.58620       -0.00090
C          1.05300        0.12820       -3.39680
C         -0.13570       -0.77580       -3.78400
C         -0.33500       -1.90820       -2.75360
O          0.91130       -2.31680       -2.23250
I          0.90300        1.99590       -4.44610
H          1.99740       -0.33910       -3.76110
H         -1.09080       -0.20190       -3.79750
H         -0.86590       -2.76070       -3.22330
H         -0.98990       -1.57530       -1.91250
F          3.39110        0.93350       -1.62800
H          1.98690        1.25050       -0.18120
H          1.82220        2.23830       -1.65630
N          1.17060       -1.82650        1.12630
