17
TSA8_9_CF3_Br_Br
C          1.76730       -1.41630        1.12990
C          0.80970       -0.22270        1.32080
C          1.65060       -1.93890       -0.32580
H          2.81500       -1.06210        1.24600
Br         1.25700        0.94070        2.82440
C          1.46910       -2.44750        2.24940
C         -0.01730       -2.80050        2.28100
C         -0.83550       -1.50580        2.38130
O         -0.55620       -0.61690        1.30910
Br         2.55870       -4.05450        2.17010
H          1.71010       -1.97290        3.22570
H         -0.31150       -3.37490        1.38040
H         -0.66970       -1.01120        3.36280
H         -1.91200       -1.77290        2.34870
F          2.54280       -2.96940       -0.55200
F          0.37500       -2.37810       -0.62700
F          1.96550       -0.91170       -1.19850
