17
TSA8_9_Cl_CCl3_F
C          2.75140       -1.33320       -1.23520
C          1.44520       -1.97130       -0.80740
Cl         2.59800        0.44510       -1.15670
H          3.54420       -1.59720       -0.50250
C          1.36730       -2.83050        0.43750
C          3.23520       -1.83630       -2.61830
C          2.26310       -1.62900       -3.76000
C          1.91000       -0.42670       -4.22490
O          0.43810       -1.77100       -1.47170
F          3.48720       -3.19400       -2.51750
H          4.19670       -1.34020       -2.87270
H          1.84430       -2.50670       -4.24430
H          1.21400       -0.35400       -5.05420
H          2.30900        0.48920       -3.80880
Cl         2.45340       -4.23480        0.28670
Cl         1.84780       -1.87710        1.86440
Cl        -0.28850       -3.44340        0.71670
