17
TSA8_9_Cl_CCl3_F
C          1.85960       -0.20150       -0.03210
C          1.52760       -1.42940       -0.50940
Cl         2.18670        1.21560       -1.02810
H          1.89850       -0.00750        1.03130
C          1.17430       -2.58410        0.41530
C          3.61130       -2.30520       -4.66970
C          2.78420       -2.45520       -3.63240
C          2.30820       -1.27130       -2.84360
O          1.45880       -1.70760       -1.84390
F          4.02920       -3.39220       -5.36880
H          3.95830       -1.31950       -4.96500
H          2.45260       -3.45320       -3.35810
H          1.75440       -0.58360       -3.51780
H          3.20160       -0.76160       -2.42650
Cl         2.29910       -3.92950        0.10260
Cl         1.23970       -2.22600        2.16900
Cl        -0.47780       -3.13750        0.04330
