21
TSA8_9_CN_NH2_OMe
C          2.69960        0.79340       -1.15500
C          2.13460       -0.60650       -1.56300
C          1.76830        1.42480       -0.18620
H          3.66070        0.65980       -0.61210
N          2.04640       -1.63770       -0.68390
C          2.93290        1.89810       -2.30120
C          2.09270        1.56890       -3.49130
C          0.78570        1.74760       -3.59180
O          1.72020       -0.82000       -2.68860
O          4.22960        1.91940       -2.89090
H          2.67520        2.93580       -1.94500
H          2.59890        1.02670       -4.29090
H          0.30090        1.35810       -4.48150
H          0.22260        2.23870       -2.81330
N          0.98940        1.91050        0.50600
H          1.63080       -2.53050       -1.00000
H          2.38740       -1.57700        0.28250
C          5.30340        2.39780       -2.11600
H          5.81340        3.23710       -2.64820
H          6.03060        1.56220       -2.09510
H          5.05750        2.73670       -1.08840
