21
TSA8_9_CN_NH2_OMe
C          1.63980       -0.06330       -0.03020
C          1.53110       -0.74890       -1.21200
C          1.83390        1.34500        0.18830
H          1.56540       -0.63470        0.89070
N          1.58430       -2.15530       -1.11140
C          3.08210        2.88480       -3.22280
C          2.82800        1.58770       -2.99620
C          1.41530        1.10600       -2.84150
O          1.43580       -0.22200       -2.47650
O          4.33740        3.39510       -3.34340
H          2.24980        3.57280       -3.31610
H          3.64020        0.86820       -2.92620
H          0.86680        1.25500       -3.80460
H          0.85930        1.68230       -2.08110
N          1.98980        2.47680        0.36520
H          1.86080       -2.69680       -1.94050
H          1.76690       -2.57960       -0.19430
C          5.46300        2.92560       -2.69410
H          6.35390        3.48450       -3.05030
H          5.63410        1.84820       -2.88200
H          5.35400        3.10750       -1.60310
