17
TSA8_9_I_Me_H
C          2.95910       -1.24730       -1.06690
C          1.45960       -1.42130       -1.09770
I          3.45890        0.51980        0.04490
H          3.38920       -2.10280       -0.50090
C          0.83400       -2.64940       -0.50660
C          3.65850       -1.25730       -2.44560
C          3.33890       -0.10520       -3.36810
C          2.17490        0.02020       -4.01100
O          0.74160       -0.54960       -1.56180
H          4.74830       -1.20270       -2.23310
H          3.47450       -2.21850       -2.97290
H          4.11110        0.63650       -3.55180
H          1.38550       -0.71420       -3.90380
H          2.01430        0.86160       -4.67730
H          1.20440       -3.54920       -1.04080
H         -0.27270       -2.61000       -0.59590
H          1.10310       -2.72480        0.56780
