17
TSA8_9_I_Me_H
C          1.95440       -0.20470       -0.15000
C          1.47240       -1.19500       -0.93980
I          2.56520        1.76090       -0.66310
H          2.02560       -0.37770        0.91960
C          1.04300       -2.48960       -0.30390
C          3.93320       -1.87430       -4.30830
C          3.47730       -1.21500       -3.23860
C          2.13420       -0.53470       -3.23670
O          1.31620       -1.12650       -2.29360
H          4.90110       -2.36310       -4.27280
H          3.34870       -1.93850       -5.22150
H          4.08760       -1.17850       -2.34120
H          1.64530       -0.64840       -4.22700
H          2.24370        0.54720       -3.07500
H          1.64550       -3.31780       -0.73770
H         -0.02820       -2.67100       -0.52280
H          1.18620       -2.49530        0.79730
