17
TSA8_9_I_Me_H
C          2.92480       -1.06920       -1.17990
C          1.37660       -1.18470       -1.36640
I          3.49100        0.94660       -0.68480
H          3.26480       -1.66490       -0.30500
C          0.84530       -2.46130       -0.71730
C          3.62050       -1.54990       -2.45380
C          3.14480       -0.74240       -3.67050
C          1.69700       -0.25610       -3.48890
O          0.95590       -1.18690       -2.73330
H          4.72780       -1.52260       -2.37370
H          3.31940       -2.60830       -2.61120
H          3.77780        0.14910       -3.87020
H          1.23170       -0.11010       -4.48520
H          1.66150        0.73940       -2.99260
H          1.28780       -3.35830       -1.20120
H         -0.25910       -2.50090       -0.82520
H          1.08880       -2.47000        0.36600
