20
TSA8_9_H_OMe_NO2
C          1.46780       -0.05520       -0.41610
C          1.82610        1.23690       -0.35550
H          1.19680       -0.58630        0.49120
H          1.43840       -0.60400       -1.35050
O          2.18070        1.94880       -1.46520
C          4.62900        3.50270        1.81270
C          3.39750        3.05070        2.10790
C          2.26950        3.12130        1.12070
O          1.83440        1.83520        0.86370
N          5.70730        3.42080        2.73860
H          4.81850        3.93730        0.83470
H          3.19460        2.60560        3.07750
H          2.59020        3.64230        0.19160
H          1.43700        3.70700        1.56350
C          2.24930        1.46770       -2.75670
H          2.55900        2.29050       -3.43330
H          1.25470        1.09650       -3.08330
H          3.00220        0.65340       -2.82100
O          5.55480        2.94850        3.82450
O          6.89630        3.85880        2.38570
