20
TSA8_9_CHF2_CHF2_Cl
C          1.67770       -0.05090       -0.07240
C          1.43490       -1.13640       -0.85350
C          1.86130        1.38630       -0.49730
H          1.72270       -0.19810        1.00340
C          1.18830       -2.47130       -0.20250
C          3.88050       -1.58300       -4.78270
C          2.90640       -1.77770       -3.88940
C          2.40000       -0.64990       -3.04050
O          1.39490       -1.11810       -2.21380
Cl         4.46470       -2.91670       -5.76410
H          4.32510       -0.60080       -4.91230
H          2.47630       -2.76920       -3.77460
H          1.99380        0.14240       -3.70390
H          3.25240       -0.24660       -2.44860
F          3.13920        1.80390       -0.17720
F          1.61780        1.61790       -1.83310
H          1.13280        2.00270        0.06890
F         -0.06390       -2.93200       -0.56450
F          2.14350       -3.37260       -0.63410
H          1.23400       -2.41570        0.90610
