20
TSA8_9_CHF2_CHF2_Cl
C          2.79700       -0.46960       -1.17930
C          1.35180       -1.02000       -1.23350
C          2.76480        1.04460       -0.86990
H          3.32430       -0.89300       -0.29540
C          1.17810       -2.49060       -0.82570
C          3.59130       -0.80440       -2.47280
C          2.68260       -1.20710       -3.64190
C          1.35340       -0.45780       -3.58830
O          0.59630       -0.67460       -2.39680
Cl         4.75970       -2.12870       -2.18980
H          4.19780        0.07800       -2.76820
H          2.44360       -2.28670       -3.61710
H          0.74600       -0.81020       -4.44790
H          1.51940        0.62410       -3.74850
F          4.05350        1.52260       -0.70600
F          2.13850        1.78460       -1.85140
H          2.21890        1.20910        0.08420
F         -0.16940       -2.78810       -0.74490
F          1.77850       -3.36470       -1.70670
H          1.62780       -2.64280        0.17750
