22
TSA8_9_OH_OMe_Me
C          3.39390       -0.71660        0.95050
C          2.16320       -0.39980        1.76410
O          3.16450       -0.43440       -0.40720
H          4.22800       -0.07950        1.32910
O          2.25070        0.51940        2.75890
C          3.82800       -2.19180        1.13060
C          2.80890       -3.14620        0.54450
C          2.16190       -4.04400        1.29340
O          1.10350       -0.96920        1.53120
C          5.18840       -2.44430        0.47100
H          3.95340       -2.38030        2.22150
H          2.59500       -3.10130       -0.52000
H          2.34250       -4.12150        2.36070
H          1.43830       -4.70980        0.83410
H          3.20390        0.55270       -0.50730
C          1.22420        0.80950        3.63130
H          1.55470        1.60780        4.32690
H          0.96560       -0.09460        4.22320
H          0.33080        1.16390        3.07440
H          5.14130       -2.26390       -0.62420
H          5.50670       -3.49430        0.64800
H          5.95690       -1.77350        0.91180
