22
TSA8_9_OH_OMe_Me
C          1.69070        0.02720       -0.09380
C          1.70080       -0.30630        1.21280
O          1.52990       -0.87680       -1.07770
H          1.80320        1.07420       -0.36710
O          1.85450        0.70070        2.10750
C          4.18950       -2.79290        1.95330
C          3.38270       -2.85730        0.88420
C          1.89170       -2.77310        1.05550
O          1.56630       -1.58430        1.68240
C          5.67670       -2.85730        1.81890
H          3.76270       -2.68680        2.94840
H          3.79910       -2.96390       -0.11410
H          1.56890       -3.61370        1.70580
H          1.35780       -2.89200        0.09390
H          1.51470       -0.59950       -2.00380
C          2.10610        0.48660        3.44720
H          2.16920        1.46420        3.96730
H          3.07580       -0.04110        3.56460
H          1.29300       -0.11670        3.90480
H          6.03570       -2.01160        1.19530
H          5.97500       -3.81880        1.34930
H          6.14440       -2.78650        2.82320
