20
TSA8_9_CHF2_H_CH2F
C          1.85950        0.06670        0.03910
C          1.21460        1.24180       -0.04560
C          2.09620       -0.70710        1.31240
H          2.23590       -0.37270       -0.87960
H          1.09500        1.69440       -1.02720
C         -0.12120        4.70550        2.75340
C         -0.43340        3.47460        2.32160
C         -0.06040        3.00220        0.94650
O          0.71060        1.86520        1.04550
C         -0.50260        5.16820        4.12660
H          0.41550        5.39320        2.10570
H         -0.97620        2.79410        2.97310
H          0.49830        3.78990        0.39220
H         -0.99170        2.76640        0.38730
F          3.45560       -0.87890        1.49320
F          1.57070       -0.08360        2.42980
H          1.62020       -1.70410        1.21190
F         -1.87710        5.12680        4.27610
H         -0.15490        6.21190        4.27800
H         -0.02760        4.51790        4.89080
