21
TSA8_9_CHF2_OH_CHF2
C          2.02130        0.23770       -0.08760
C          1.59320        1.11930       -1.04340
C          1.87430        0.13780        1.41640
H          2.59410       -0.60650       -0.46390
O          1.90980        0.83370       -2.32980
C          1.98100        4.96440        0.87500
C          1.77070        3.63990        0.83200
C          0.53290        3.05380        0.19820
O          0.87160        2.26980       -0.88270
C          3.21990        5.53850        1.49410
H          1.25040        5.64920        0.45330
H          2.51510        2.97300        1.25550
H         -0.11120        3.87500       -0.18320
H         -0.11400        2.50530        0.90200
F          3.13200        0.14350        1.98910
F          1.11360        1.09440        2.03110
H          1.39720       -0.83980        1.64010
H          2.41700        0.05450       -2.60060
F          3.29400        5.17840        2.82720
F          4.33930        5.07420        0.82740
H          3.19190        6.64600        1.42100
