20
TSA8_9_OMe_F_NH2
C          0.42870       -1.31900       -0.82130
C          1.30320       -1.02170        0.37580
O          1.16350       -1.16180       -2.02500
H         -0.46190       -0.64560       -0.81340
F          0.95390       -0.03520        1.24080
C         -0.10060       -2.76830       -0.75270
C         -0.93600       -2.97490        0.49480
C         -0.59580       -3.85850        1.43770
O          2.32840       -1.65790        0.56870
N         -0.90370       -3.06690       -1.94030
H          0.77510       -3.45750       -0.74980
H         -1.83770       -2.38400        0.62830
H          0.29970       -4.46430        1.34390
H         -1.21790       -3.97560        2.31920
C          1.42680        0.20370       -2.28080
H          1.74960        0.30470       -3.33670
H          2.25780        0.56770       -1.63920
H          0.52310        0.84400       -2.16890
H         -1.75270       -2.45520       -1.96710
H         -1.21360       -4.06590       -1.90830
