17
TSA8_9_CF3_H_F
C          1.70550        0.97900        1.54520
C          1.12460        1.33420        0.19620
C          1.49070       -0.52180        1.84490
H          2.80310        1.14220        1.45940
H          1.78110        1.70740       -0.58300
C          1.23450        1.90950        2.70390
C         -0.23590        1.85740        3.05270
C         -1.18900        2.39630        2.28670
O         -0.05390        1.14990       -0.06250
F          1.94920        1.57620        3.84210
H          1.49880        2.96320        2.46620
H         -0.53100        1.40340        3.99450
H         -0.95110        2.90880        1.36200
H         -2.22660        2.34890        2.60040
F          2.13800       -0.88020        3.01370
F          0.14380       -0.81440        1.97270
F          2.01350       -1.28300        0.81340
