24
TSA8_9_CBr3_OMe_CH2F
C          2.14760       -0.95900        1.94020
C          0.85070       -0.51540        2.62700
C          1.92490       -1.01490        0.38850
H          2.93590       -0.19790        2.10910
O          0.74570        0.63480        3.34670
C          2.62680       -2.30200        2.59620
C          3.90280       -2.83540        1.98760
C          3.96040       -4.03740        1.40420
O         -0.13950       -1.22560        2.54080
C          2.87360       -2.13610        4.10930
H          1.81910       -3.05850        2.47500
H          4.80340       -2.22880        2.03070
H          3.08450       -4.67620        1.34310
H          4.89440       -4.38970        0.97990
Br         1.17770        0.66520       -0.25300
Br         3.57710       -1.21360       -0.62090
Br         0.72140       -2.44240       -0.16380
C          1.75980        1.53040        3.60550
H          1.35750        2.36490        4.21400
H          2.16130        1.94710        2.65730
H          2.56820        1.03580        4.18280
F          3.88110       -1.21570        4.34750
H          3.17200       -3.11030        4.55260
H          1.95360       -1.80420        4.63290
