24
TSA8_9_CBr3_OMe_CH2F
C          1.63630       -0.02000        0.03400
C          1.46450       -0.23700        1.35760
C          1.78750       -1.01440       -1.09730
H          1.68560        1.02270       -0.26960
O          1.33190        0.87140        2.13380
C          3.18880       -3.20860        4.21160
C          3.14530       -2.24860        3.27700
C          2.40800       -2.40470        1.98130
O          1.40960       -1.45340        1.96140
C          3.91510       -2.97080        5.49890
H          2.69130       -4.16080        4.05140
H          3.64380       -1.30670        3.46150
H          1.95340       -3.41170        1.88660
H          3.12850       -2.25870        1.15360
Br         0.97900       -0.23280       -2.67840
Br         3.66960       -1.24480       -1.49100
Br         0.91210       -2.73040       -0.85260
C          1.77370        0.93790        3.43810
H          1.43970        1.89270        3.88690
H          2.88490        0.92990        3.43510
H          1.39110        0.08950        4.04330
F          5.24970       -2.70050        5.25110
H          3.84020       -3.86790        6.14790
H          3.46100       -2.10680        6.03210
