18
TSA8_9_CN_CHF2_I
C          2.92520       -1.14560        0.78340
C          1.53020       -0.84330        1.34970
C          2.77040       -1.44660       -0.65170
H          3.56260       -0.22290        0.86060
C          1.27650       -0.02110        2.58660
C          3.59930       -2.33680        1.51820
C          2.68140       -3.52080        1.41660
C          1.80120       -3.75480        2.38710
O          0.54210       -1.30390        0.78030
I          5.55110       -2.95410        0.85280
H          3.76650       -2.06540        2.58210
H          2.65500       -4.11000        0.50230
H          1.78670       -3.11830        3.26610
H          1.06750       -4.53980        2.28050
N          2.65110       -1.68380       -1.78120
F          1.91230       -0.55410        3.69120
F          1.70730        1.27450        2.38110
H          0.18210        0.00910        2.79850
