18
TSA8_9_CN_CHF2_I
C          1.61190       -0.00710        0.07110
C          1.49980       -0.71880        1.22300
C          1.74520       -0.64030       -1.21830
H          1.48740        1.07220        0.06170
C          1.13250        0.01810        2.50830
C          4.31810       -4.11400        2.22470
C          3.56450       -3.21710        1.58220
C          2.13850       -2.97330        2.01840
O          1.52360       -2.08430        1.14850
I          6.31670       -4.49980        1.65660
H          3.91370       -4.67670        3.05850
H          4.00150       -2.68270        0.73860
H          2.11880       -2.63680        3.07060
H          1.60310       -3.94760        1.97970
N          1.85220       -1.17030       -2.24110
F          1.67900       -0.51880        3.65330
F          1.47800        1.35620        2.46740
H          0.02700       -0.04850        2.58470
