16
TSA8_9_Cl_Cl_NO2
C          2.03590        0.66190       -1.97500
C          0.84870       -0.06920       -2.54390
Cl         1.68110        1.08510       -0.27280
H          2.91740       -0.01580       -1.98110
Cl         1.01820       -1.72020       -3.11820
C          2.35900        1.92690       -2.80290
C          3.54960        2.65640       -2.22090
C          3.46000        3.91150       -1.76960
O         -0.24130        0.47740       -2.61090
N          2.64280        1.57410       -4.18300
H          1.46650        2.59450       -2.77820
H          4.50720        2.14590       -2.16660
H          2.52200        4.45710       -1.80470
H          4.33520        4.40340       -1.35790
O          3.55870        0.85510       -4.45120
O          1.88620        2.04650       -5.15010
