18
TSA8_9_F_CF3_OH
C          2.06280        1.29860        1.74510
C          0.88430        2.15760        1.35910
F          1.65410       -0.02320        1.73320
H          2.87340        1.42070        0.99290
C          0.93430        3.01420        0.12400
C          2.61130        1.69290        3.13340
C          3.81930        0.86750        3.52040
C          3.76230       -0.45370        3.71960
O         -0.12280        2.14760        2.05230
O          2.97990        3.04860        3.10110
H          1.80650        1.54420        3.89200
H          4.77350        1.36800        3.66170
H          2.83480       -1.00520        3.61390
H          4.65800       -0.99610        4.00410
F         -0.25330        3.70700       -0.03640
F          1.97180        3.92180        0.23060
F          1.13990        2.21500       -0.98480
H          3.00800        3.36210        4.04310
