18
TSA8_9_F_CF3_OH
C          1.84210        0.17110        0.10160
C          1.54590        1.33710        0.72180
F          2.19200       -0.95370        0.77750
H          1.77510        0.08480       -0.97770
C          1.10360        2.54210       -0.07250
C          3.01190        1.96480        5.11930
C          3.14850        1.84680        3.79060
C          2.38470        0.82960        2.99500
O          1.60450        1.50290        2.07400
O          3.70530        2.89570        5.81160
H          2.33580        1.31100        5.66160
H          3.82860        2.50670        3.25890
H          1.72630        0.21910        3.64990
H          3.13320        0.16980        2.51660
F         -0.15720        2.92430        0.34610
F          1.98510        3.58110        0.16110
F          1.06190        2.29700       -1.43530
H          4.31680        3.51230        5.38300
