21
TSA8_9_CHF2_NO2_NO2
C          2.69870        0.90950        1.08290
C          1.36250        1.54900        0.71210
C          2.59320       -0.62580        0.87990
H          3.47030        1.27780        0.37490
N          1.24930        2.41310       -0.33740
C          3.14790        1.38480        2.51110
C          2.29170        0.79490        3.61280
C          1.52380        1.55250        4.40160
O          0.36960        1.27620        1.37540
N          4.54940        1.11110        2.80680
H          3.04510        2.49440        2.51810
H          2.30940       -0.27670        3.78280
H          1.47680        2.62970        4.27650
H          0.93170        1.09000        5.18460
F          3.78130       -1.27240        1.15700
F          1.59010       -1.18270        1.65310
H          2.34290       -0.82590       -0.18410
O          0.18980        2.89740       -0.60320
O          2.29500        2.72700       -1.07240
O          5.27170        0.60140        2.00450
O          5.06020        1.53480        3.94350
