26
TSA8_9_CBr3_Et_CH2F
C          2.74100        0.53760        1.14080
C          1.47080        1.38890        0.88070
C          2.30840       -0.93320        1.48110
H          3.29890        0.43780        0.18340
C          1.37000        2.25840       -0.38900
C          3.65360        1.33670        2.13030
C          2.86380        1.83210        3.34290
C          1.64660        2.62710        2.86590
O          0.79250        1.85810        2.03790
C          4.93380        0.62660        2.57690
H          3.98540        2.24830        1.58990
H          2.55970        1.00250        4.00620
H          1.96330        3.55850        2.36440
H          1.07400        2.94460        3.76170
Br         1.18400       -1.61340        0.04280
Br         3.79830       -2.18110        1.52580
Br         1.27570       -1.16070        3.11140
C          2.31070        3.45760       -0.46280
H          0.32190        2.61010       -0.49550
H          1.59190        1.60260       -1.25790
H          2.09010        4.20080        0.32420
H          2.16650        3.96600       -1.43940
H          3.36790        3.13230       -0.40380
F          5.71980        1.49280        3.31720
H          5.51630        0.29970        1.69000
H          4.69640       -0.24600        3.21780
