17
TSA8_9_Br_NO2_OH
C          2.85660       -1.17260       -0.51100
C          1.35740       -1.61570       -0.48540
Br         3.01110        0.64570       -1.19860
H          3.27110       -1.12740        0.51940
N          1.06040       -2.30750        0.75500
C          3.65340       -2.16780       -1.36070
C          3.07810       -2.23600       -2.78790
C          1.56300       -1.97240       -2.78940
O          0.98150       -2.44170       -1.59450
O          5.01500       -1.83180       -1.38490
H          3.51940       -3.16230       -0.87360
H          3.54470       -1.50490       -3.48360
H          1.10410       -2.47450       -3.66580
H          1.33970       -0.88860       -2.91210
O          0.64650       -3.42810        0.74620
O          1.18270       -1.67390        1.90130
H          5.49870       -2.63390       -1.71420
