25
TSA8_9_OMe_CN_Et
C          2.34110       -0.50980       -1.42370
C          2.04480       -1.80200       -0.64250
O          1.22850        0.32420       -1.10960
H          3.31510       -0.11310       -1.04390
C          1.96170       -1.79330        0.79520
C          2.42760       -0.76410       -2.99470
C          1.28650       -0.07830       -3.69700
C          0.12180       -0.69750       -3.87380
O          1.70320       -2.83180       -1.20720
C          3.78350       -0.65790       -3.77820
H          2.25930       -1.84740       -3.11520
H          1.37760        0.96780       -3.97170
H         -0.01270       -1.72230       -3.54120
H         -0.70630       -0.16280       -4.31840
C          1.59030        1.64680       -0.80830
H          2.19780        2.10270       -1.61800
H          2.07480        1.70820        0.18950
H          0.64680        2.23260       -0.74690
N          1.87880       -1.78350        1.95050
C          4.09000        0.66270       -4.50340
H          3.72530       -1.38630       -4.62060
H          4.64270       -0.97860       -3.14880
H          3.28090        0.90270       -5.22840
H          5.00740        0.53350       -5.12400
H          4.23970        1.50940       -3.80910
