21
TSA8_9_CN_CF3_CF3
C          2.79340        1.06370        1.20800
C          1.56620        1.75840        0.60130
C          2.54060       -0.42830        1.08110
H          3.67810        1.34190        0.59020
C          1.66200        2.59410       -0.64880
C          2.96060        1.59140        2.70670
C          2.36280        0.56260        3.62450
C          1.09390        0.61330        3.99550
O          0.47760        1.66150        1.15250
C          4.32570        2.02150        3.32830
H          2.39990        2.55630        2.76230
H          2.96620       -0.30270        3.89260
H          0.46600        1.43680        3.68210
H          0.68500       -0.20280        4.57490
N          2.27060       -1.56030        1.04310
F          0.43770        3.18520       -0.93490
F          2.60840        3.58630       -0.48850
F          2.01640        1.77820       -1.70560
F          4.95660        2.99080        2.56790
F          4.06710        2.58090        4.57780
F          5.18900        0.95670        3.51360
