21
TSA8_9_CN_CF3_CF3
C          1.68890        0.07770        0.00980
C          1.51510        1.34500        0.46600
C          1.85470       -1.13060        0.75210
H          1.63110       -0.06210       -1.05300
C          1.59710        2.45080       -0.53690
C          3.23560        2.32710        3.78530
C          2.71210        1.13790        3.42680
C          1.31020        1.02060        2.92110
O          1.22690        1.72910        1.74910
C          4.62410        2.47640        4.35930
H          2.63680        3.23120        3.69350
H          3.29490        0.23430        3.51110
H          0.61810        1.44390        3.69010
H          1.00380       -0.02580        2.77140
N          1.98870       -2.10530        1.35630
F          0.33530        2.94760       -0.66100
F          2.43460        3.45470       -0.07130
F          2.08530        2.03640       -1.77590
F          5.36750        3.32350        3.56050
F          4.52990        3.02640        5.62590
F          5.28020        1.26090        4.45650
