21
TSA8_9_CN_CF3_CF3
C          2.87310        0.95210        1.30150
C          1.44420        1.37370        0.81320
C          2.82630       -0.52340        1.41890
H          3.63870        1.19690        0.53050
C          1.52140        2.47660       -0.25570
C          3.08730        1.70720        2.65470
C          2.09240        1.13850        3.66530
C          0.70940        0.98410        3.02070
O          0.58270        1.80960        1.87470
C          4.46640        1.90040        3.31140
H          2.79220        2.75760        2.45610
H          2.42540        0.14820        4.06230
H         -0.02740        1.28650        3.78970
H          0.48880       -0.07400        2.75490
N          2.78330       -1.67870        1.47310
F          0.25220        2.94620       -0.54210
F          2.30040        3.53510        0.17710
F          2.07080        1.95990       -1.41500
F          5.28660        2.65860        2.49480
F          4.27250        2.61770        4.48620
F          5.08870        0.70850        3.62120
