25
TSA8_9_Et_NH2_Me
C          1.83080        0.08030       -0.22170
C          1.44670        0.96340       -1.16570
C          1.87710        0.38840        1.25400
H          2.11330       -0.92420       -0.52570
N          1.39880        0.56420       -2.52640
C          2.74580        4.79200       -2.40640
C          2.77820        3.57240       -1.85070
C          1.99570        3.24740       -0.60480
O          1.08640        2.23290       -0.84380
C          3.53420        5.09740       -3.64200
H          2.14450        5.58160       -1.96420
H          3.38640        2.79230       -2.30080
H          1.43450        4.13950       -0.25330
H          2.70330        2.95510        0.19850
C          3.29650        0.22950        1.78520
H          1.20570       -0.31980        1.78440
H          1.52200        1.41510        1.47760
H          3.65850       -0.80750        1.61830
H          3.31170        0.44060        2.87520
H          3.97980        0.94130        1.27440
H          1.09920        1.23470       -3.24880
H          1.65690       -0.39200       -2.81230
H          3.20550        4.43920       -4.47370
H          4.61630        4.93760       -3.45040
H          3.37410        6.15580       -3.93630
