17
TSA8_9_Cl_I_CCl3
C          1.90080        0.74740       -2.21760
C          0.69340       -0.01340       -2.69000
Cl         1.69830        1.00730       -0.45590
H          2.80150        0.11150       -2.35410
I          0.90270       -1.95750       -3.49140
C          2.11450        2.10700       -2.95400
C          3.30020        2.81150       -2.31590
C          3.17660        3.99070       -1.69770
O         -0.42220        0.47510       -2.59680
C          2.36210        1.98920       -4.49350
H          1.20110        2.72720       -2.80720
H          4.28070        2.34590       -2.35880
H          2.21640        4.49250       -1.62940
H          4.04640        4.46300       -1.25280
Cl         2.67070        3.60570       -5.19430
Cl         3.76990        0.95270       -4.87040
Cl         0.94970        1.35170       -5.37980
