26
TSA8_9_Et_CCl3_CBr3
C          1.94590        0.04790        0.18180
C          1.47050       -0.13300        1.45480
C          1.90090       -0.85350       -1.03080
H          2.43270        0.98410       -0.05560
C          1.63050        0.96530        2.50370
C          1.97310       -4.45600        2.01000
C          1.81350       -3.30830        1.33080
C          0.54790       -2.49370        1.43400
O          0.81030       -1.23510        1.93390
C          3.23410       -5.27360        1.90330
H          1.17360       -4.81340        2.65320
H          2.61540       -2.96240        0.69180
H         -0.14850       -2.98920        2.14330
H         -0.01220       -2.43240        0.48330
C          3.31520       -1.10890       -1.54730
H          1.32610       -0.33220       -1.82560
H          1.42090       -1.82170       -0.87950
H          3.81290       -0.14930       -1.80480
H          3.27140       -1.73830       -2.46090
H          3.92310       -1.63380       -0.78060
Cl         2.54360        0.30550        3.88430
Cl         2.46860        2.46400        1.98810
Cl         0.01390        1.44470        3.08090
Br         3.08970       -6.85890        3.00950
Br         3.52590       -5.83850        0.07000
Br         4.76490       -4.24680        2.50760
