23
TSA8_9_Me_CF3_CHF2
C          2.60400        1.12350       -1.29630
C          1.29410        0.32090       -1.60710
C          2.56730        1.58640        0.16840
H          3.49160        0.45940       -1.39390
C          1.56950       -1.11940       -2.04360
C          2.73830        2.27620       -2.32600
C          1.46490        3.14380       -2.34790
C          0.20870        2.28060       -2.14790
O          0.45800        0.95740       -2.56990
C          4.00830        3.13570       -2.20910
H          2.79190        1.77440       -3.31890
H          1.45290        3.95660       -1.58980
H         -0.63440        2.71840       -2.72040
H         -0.11770        2.28680       -1.08150
H          1.72450        2.28120        0.36050
H          3.51560        2.08470        0.45080
H          2.45240        0.70460        0.83460
F          0.37030       -1.78040       -2.23590
F          2.28720       -1.13100       -3.22670
F          2.28830       -1.78160       -1.06460
F          4.01980        3.87720       -1.04190
F          5.13450        2.33350       -2.25540
H          4.04800        3.84420       -3.06360
