19
TSA8_9_Br_CBr3_NO2
C          2.13620        0.60660       -1.98010
C          1.01740       -0.16820       -2.64750
Br         1.52360        1.10140       -0.19650
H          3.02950       -0.04360       -1.85530
C          1.16110       -1.63690       -2.99650
C          2.51940        1.87290       -2.78680
C          3.59180        2.66260       -2.06810
C          3.39140        3.91810       -1.65470
O         -0.04050        0.40410       -2.86910
N          2.99780        1.52440       -4.11190
H          1.60450        2.50090       -2.88840
H          4.55490        2.19600       -1.88060
H          2.44360        4.42110       -1.82050
H          4.18390        4.45280       -1.14150
Br         1.52780       -2.66250       -1.39260
Br        -0.46390       -2.35330       -3.79090
Br         2.59840       -1.93040       -4.25970
O          3.99720        0.88440       -4.24850
O          2.35110        1.94890       -5.17620
