19
TSA8_9_Br_CBr3_NO2
C          2.90110        0.45670       -2.41490
C          1.42390        0.46400       -1.89420
Br         4.07690        0.77730       -0.89270
H          3.18200       -0.53820       -2.82010
C          0.62520       -0.80740       -2.23770
C          3.04790        1.52070       -3.52300
C          2.61600        2.90710       -3.01010
C          1.45480        2.77640       -2.01010
O          0.69450        1.62290       -2.30000
N          4.37540        1.55680       -4.10950
H          2.32290        1.23610       -4.31740
H          3.42890        3.48060       -2.51440
H          0.81930        3.68450       -2.05660
H          1.83650        2.72780       -0.96300
Br         1.46990       -2.38340       -1.48070
Br        -1.14950       -0.68810       -1.46530
Br         0.43610       -1.04740       -4.15560
O          5.32610        1.86670       -3.45650
O          4.53530        1.26670       -5.38280
