21
TSA8_9_CN_CHF2_CBr3
C          3.03210       -0.11460       -1.64070
C          1.59520       -0.66580       -1.49530
C          3.09300        1.14580       -0.86070
H          3.78030       -0.82320       -1.23090
C          1.54800       -2.08400       -0.92640
C          3.29270        0.12990       -3.17530
C          2.23480        1.11640       -3.67520
C          0.82970        0.68270       -3.23180
O          0.83650       -0.62610       -2.69510
C          4.72060        0.50680       -3.64110
H          3.09260       -0.84060       -3.66450
H          2.42150        2.16080       -3.33340
H          0.18700        0.69970       -4.13870
H          0.38280        1.39090       -2.50510
N          3.12510        2.09720       -0.20570
F          2.19600       -2.94960       -1.78080
F          2.15370       -2.12180        0.31520
H          0.49240       -2.41290       -0.81940
Br         4.70550        0.70930       -5.57740
Br         5.42550        2.14870       -2.88950
Br         5.95970       -0.93350       -3.26130
