18
TSA8_9_OH_H_CH2F
C          1.91700       -0.03230       -0.11240
C          1.11940        1.02650        0.04200
O          2.51780       -0.59890        0.95380
H          2.07900       -0.44390       -1.10490
H          0.63970        1.45800       -0.83350
C         -1.13230        2.69230        3.72870
C         -0.98850        2.09930        2.53510
C          0.02080        2.57220        1.52940
O          0.90630        1.54610        1.27400
C         -2.13660        2.19460        4.72300
H         -0.51400        3.54490        3.99590
H         -1.61100        1.24670        2.27830
H          0.58960        3.44680        1.91320
H         -0.51680        2.88960        0.60850
H          3.08640       -1.37280        0.84510
F         -3.41050        2.27100        4.18940
H         -2.09180        2.81540        5.64210
H         -1.91100        1.14090        4.99140
