18
TSA8_9_OH_H_CH2F
C          0.43920        0.57080        1.81560
C          0.86850        1.14340        0.44490
O          1.54460        0.06030        2.51200
H         -0.28170       -0.25170        1.59620
H          0.05830        1.03580       -0.31320
C         -0.23970        1.66460        2.67830
C         -0.98620        2.61990        1.74990
C          0.08080        3.31390        0.86270
O          1.22000        2.50700        0.54820
C         -1.14330        1.07080        3.76410
H          0.54580        2.27180        3.18560
H         -1.69740        2.02760        1.13200
H          0.46510        4.16790        1.45920
H         -0.38300        3.73160       -0.05590
H          1.80380       -0.78280        2.05600
F         -2.17220        0.33410        3.20270
H         -1.58130        1.88840        4.37530
H         -0.54940        0.41320        4.43380
