18
TSA8_9_CCl3_Br_OH
C          1.53090       -1.18030       -1.80320
C          1.07700       -1.63560       -0.39750
C          1.50190        0.38320       -1.91090
H          2.60210       -1.45230       -1.93320
Br         1.75420       -3.38540        0.14620
C          0.71870       -1.99980       -2.84630
C         -0.78350       -1.92010       -2.57060
C         -1.04370       -2.31870       -1.11300
O         -0.32410       -1.49830       -0.20360
O          1.00900       -1.60620       -4.15990
H          1.02050       -3.06650       -2.71890
H         -1.18170       -0.91080       -2.78050
H         -0.81000       -3.39310       -0.95190
H         -2.12890       -2.20570       -0.91060
Cl         2.12120        0.94890       -3.48680
Cl        -0.09040        1.14620       -1.64020
Cl         2.60250        1.06680       -0.67980
H          0.66960       -2.32370       -4.75640
