18
TSA8_9_F_CN_Me
C          2.89320        0.34070        1.69860
C          1.92180        1.42520        1.26620
F          2.79700       -0.74690        0.83860
H          3.90890        0.77350        1.60130
C          2.01960        2.00490       -0.04720
C          2.65860       -0.11090        3.16220
C          1.44380       -1.01340        3.23990
C          0.27050       -0.61150        3.73180
O          1.12400        1.90970        2.05380
C          3.87870       -0.84510        3.73180
H          2.52950        0.80200        3.78610
H          1.52270       -2.02700        2.85360
H          0.12770        0.40070        4.09230
H         -0.56930       -1.29980        3.74340
N          2.10120        2.47490       -1.10330
H          4.77530       -0.18980        3.67310
H          4.08620       -1.78130        3.17170
H          3.70880       -1.09180        4.80230
