18
TSA8_9_F_CN_Me
C          1.64000        0.04620       -0.00090
C          1.50060        1.19660        0.70620
F          1.64570       -1.19540        0.55990
H          1.63290        0.09170       -1.08540
C          1.40720        2.44500        0.00150
C          2.84210       -0.39930        4.60600
C          2.43140       -0.39430        3.32940
C          1.12450        0.23360        2.93870
O          1.33500        1.27310        2.05690
C          4.12370       -1.05460        5.02250
H          2.23820        0.07300        5.37480
H          3.04550       -0.85510        2.56250
H          0.59660        0.61530        3.84470
H          0.43720       -0.51110        2.48920
N          1.32740        3.46800       -0.53140
H          4.98920       -0.60240        4.49590
H          4.08180       -2.14190        4.80190
H          4.26740       -0.92670        6.11610
