18
TSA8_9_CHF2_H_OH
C          1.66500        1.40810        1.54640
C          1.55110        1.63770        0.05700
C          1.29820       -0.05380        1.87830
H          2.73960        1.55320        1.79770
H          2.43210        1.93390       -0.50320
C          0.87770        2.44210        2.41110
C         -0.63210        2.39000        2.27890
C         -1.29080        2.83710        1.20590
O          0.51110        1.42760       -0.54570
O          1.21170        2.22550        3.75920
H          1.22790        3.46410        2.12950
H         -1.21620        2.01920        3.11680
H         -0.77100        3.27020        0.36000
H         -2.37500        2.79580        1.18100
F          2.07410       -0.91870        1.12540
F          1.52030       -0.32750        3.21600
H          0.22880       -0.24630        1.64790
H          1.02680        3.07100        4.24700
