18
TSA8_9_CHF2_H_OH
C          1.78230        0.02800       -0.01350
C          1.13870        1.20180        0.08600
C          2.03290       -0.92700        1.12740
H          2.15030       -0.26730       -0.99180
H          1.01320        1.80110       -0.81300
C         -0.07390        4.14070        3.47180
C         -0.45410        3.04460        2.79750
C         -0.06840        2.82260        1.36420
O          0.64690        1.65030        1.26450
O         -0.42800        4.32740        4.76220
H          0.52960        4.90100        2.98490
H         -1.05930        2.28980        3.29240
H          0.54510        3.66850        0.98010
H         -0.99410        2.74770        0.75320
F          3.39400       -1.11920        1.26670
F          1.51880       -0.47860        2.33110
H          1.55720       -1.89980        0.88510
H         -0.96350        3.68660        5.25170
