22
TSA8_9_NO2_NO2_OMe
C          2.78480        0.16070        1.20200
C          1.61600        1.03620        0.76080
N          2.32210       -1.19960        1.42360
H          3.54850        0.13820        0.39300
N          1.60540        1.66280       -0.44980
C          3.51620        0.75450        2.44160
C          2.61650        0.98790        3.65610
C          2.38710        2.21300        4.14190
O          0.66140        1.17300        1.51560
O          4.71180        0.02330        2.71700
H          3.86890        1.75820        2.11380
H          2.13970        0.14760        4.14970
H          2.83470        3.09300        3.69010
H          1.74140        2.34250        5.00410
O          2.76350       -2.09380        0.76660
O          1.38430       -1.45650        2.31150
O          0.67270        2.33970       -0.76610
O          2.61500        1.53910       -1.28550
C          4.57100       -0.98880        3.69480
H          4.60020       -0.54820        4.71440
H          5.43130       -1.68280        3.60410
H          3.66300       -1.60700        3.55180
