16
TSA8_9_OH_CN_Cl
C          1.63760       -0.05330        0.05900
C          1.56700       -1.31510        0.49720
O          1.64950        0.19430       -1.26750
H          1.58960        0.77750        0.75780
C          1.34850       -1.60390        1.89170
C         -0.03090       -3.92120       -2.96250
C          0.20250       -2.82050       -2.24620
C          0.31900       -2.87460       -0.75690
O          1.53070       -2.33860       -0.37940
Cl        -0.16240       -3.82760       -4.70870
H         -0.15030       -4.88410       -2.47490
H          0.30690       -1.86020       -2.74460
H          0.23010       -3.90760       -0.36400
H         -0.52440       -2.29350       -0.32550
H          1.43050        1.07680       -1.59990
N          1.17790       -1.86670        3.00510
