19
TSA8_9_OMe_OH_Cl
C          0.57020       -1.00430       -0.89230
C          1.45940       -0.98020        0.33040
O          1.30670       -0.61920       -2.04190
H         -0.30710       -0.33180       -0.73560
O          1.13560       -0.19080        1.37630
C          0.00780       -2.42150       -1.12220
C         -0.81980       -2.87710        0.05460
C         -0.50380       -3.96520        0.76320
O          2.47000       -1.66680        0.37160
Cl        -1.03170       -2.44020       -2.57380
H          0.85360       -3.12210       -1.30350
H         -1.69780       -2.30210        0.33530
H          0.36670       -4.56480        0.51550
H         -1.12160       -4.26190        1.60430
C          1.52970        0.77580       -2.05050
H          1.93820        1.05650       -3.04290
H          2.28700        1.05950       -1.28770
H          0.58860        1.35540       -1.92350
H          1.68810       -0.15480        2.17100
