19
TSA8_9_OMe_OH_Cl
C          1.53850        0.15340       -0.02290
C          1.12450       -0.97570        0.56690
O          1.63420        0.21320       -1.37100
H          1.77920        1.02510        0.58210
O          0.99970       -1.04240        1.91460
C         -1.14400       -4.49500       -1.45400
C         -1.02290       -3.38330       -0.72060
C          0.13620       -3.16840        0.20920
O          0.82290       -2.04730       -0.20850
Cl        -2.50420       -4.69490       -2.54610
H         -0.40440       -5.28760       -1.39270
H         -1.77490       -2.60310       -0.80280
H          0.82620       -4.03890        0.19190
H         -0.25490       -3.05540        1.24390
C          1.94820        1.37470       -2.03800
H          1.96140        1.17360       -3.12880
H          2.94880        1.74010       -1.72420
H          1.18080        2.15100       -1.82870
H          1.20720       -0.29660        2.49610
