23
TSA8_9_CBr3_Et_H
C          1.95280       -1.29680       -1.42470
C          0.60790       -1.89270       -1.03810
C          1.92210        0.25940       -1.28090
H          2.70430       -1.67340       -0.69550
C          0.52080       -2.82690        0.14750
C          2.31390       -1.88100       -2.82450
C          3.69930       -1.61520       -3.35450
C          4.03040       -0.48630       -3.98550
O         -0.39070       -1.62710       -1.69440
H          2.26040       -2.98680       -2.70850
H          1.56220       -1.61470       -3.59980
H          4.44270       -2.40450       -3.28550
H          3.31040        0.31220       -4.12420
H          5.03400       -0.36080       -4.37930
Br         1.21250        0.77440        0.45900
Br         3.69490        1.05270       -1.29900
Br         0.82250        1.12540       -2.63310
C         -0.89240       -3.35040        0.39950
H          0.86880       -2.29070        1.05570
H          1.19360       -3.69280       -0.03250
H         -1.58440       -2.50740        0.60910
H         -0.88470       -4.03070        1.27750
H         -1.25710       -3.91670       -0.48420
