23
TSA8_9_CH2F_CF3_CH2F
C          2.69840       -0.01120       -1.58420
C          1.55530       -0.92840       -1.18840
C          2.76700        1.15360       -0.57280
H          3.63860       -0.59820       -1.48360
C          1.83510       -2.34640       -0.76810
C          2.55890        0.39500       -3.08930
C          1.38330        1.31870       -3.33680
C          0.34800        0.96520       -4.10420
O          0.40280       -0.51750       -1.20280
C          3.83250        1.01880       -3.68800
H          2.41750       -0.55750       -3.65100
H          1.37990        2.30530       -2.88420
H          0.30530       -0.00870       -4.57970
H         -0.47170        1.66050       -4.25730
F          3.89130        1.93120       -0.75560
H          2.82500        0.73840        0.45620
H          1.85870        1.78980       -0.62650
F          0.65820       -3.00420       -0.45540
F          2.46380       -3.01870       -1.80020
F          2.65760       -2.34550        0.34280
F          4.09870        2.27560       -3.17990
H          3.70200        1.12520       -4.78680
H          4.70420        0.35230       -3.51470
