23
TSA8_9_CH2F_CF3_CH2F
C          1.92080       -0.08070       -0.08390
C          1.52010       -1.02440       -0.98880
C          1.90010        1.42340       -0.15850
H          2.31340       -0.42410        0.86770
C          1.62730       -2.49120       -0.62640
C          2.72820        0.75270       -4.72160
C          2.31990        0.75080       -3.44420
C          0.93370        0.30260       -3.05240
O          1.00340       -0.80870       -2.23880
C          4.11610        1.18270       -5.08720
H          2.05700        0.43310       -5.51400
H          3.01130        1.06930       -2.67170
H          0.36660        0.01000       -3.96190
H          0.32980        1.10240       -2.58730
F          3.18810        1.89900        0.00190
H          1.27850        1.80330        0.67850
H          1.49300        1.86330       -1.07040
F          0.36830       -3.06010       -0.67820
F          2.44000       -3.12220       -1.54970
F          2.15270       -2.70690        0.63690
F          4.32300        2.49460       -4.70140
H          4.25510        1.10220       -6.18560
H          4.85820        0.52770       -4.58340
