25
TSA8_9_Et_CBr3_NH2
C          1.91310        1.32600        1.62630
C          1.38140        1.28050        0.19180
C          1.98270       -0.09180        2.26780
H          2.96450        1.68570        1.59580
C          1.58260        2.39860       -0.81570
C          1.07340        2.33290        2.47630
C         -0.38890        1.93870        2.56010
C         -1.36120        2.72740        2.09090
O          0.75980        0.29410       -0.18200
N          1.62890        2.48300        3.82480
H          1.14630        3.32650        1.98870
H         -0.66170        0.99390        3.02030
H         -1.13670        3.68360        1.62830
H         -2.39790        2.41730        2.16950
C          2.95390       -1.02140        1.53170
H          0.97650       -0.56110        2.29970
H          2.36560       -0.01810        3.30540
H          2.64320       -1.19820        0.48310
H          2.99350       -2.00240        2.04990
H          3.97630       -0.58320        1.53240
Br         2.46300        1.67120       -2.38280
Br        -0.14030        3.09880       -1.35960
Br         2.68100        3.88590       -0.20730
H          1.43390        1.63570        4.40390
H          1.15820        3.28900        4.29800
