19
TSA8_9_CBr3_NH2_H
C          1.42230       -0.39290        0.02450
C          1.97170       -1.32860        0.84240
C          1.99250        0.08520       -1.29370
H          0.49870        0.07770        0.33860
N          3.20480       -1.96770        0.53570
C         -0.90440       -3.02350        4.15140
C         -0.34410       -2.98190        2.93870
C          0.00810       -1.68430        2.27040
O          1.36760       -1.68270        2.01160
H         -1.14090       -3.98050        4.60600
H         -1.13180       -2.11420        4.69810
H         -0.13350       -3.91250        2.42060
H         -0.24460       -0.81990        2.91910
H         -0.58480       -1.61920        1.33350
Br         0.83350        1.45030       -2.04020
Br         3.74540        0.89340       -1.07230
Br         2.07180       -1.36480       -2.58180
H          3.58400       -2.66890        1.18800
H          3.73120       -1.78210       -0.32620
