19
TSA8_9_CBr3_NH2_H
C          1.43490       -0.80670        1.62620
C          1.92440       -2.19200        1.10620
C          1.65940        0.41920        0.68880
H          2.01310       -0.63680        2.56120
N          3.25100       -2.22520        0.50760
C         -0.06880       -0.95600        2.01210
C         -0.36840       -2.40390        2.40330
C         -0.11510       -3.27850        1.14120
O          0.96410       -2.84430        0.31400
H         -0.33770       -0.24400        2.82110
H         -0.72610       -0.73720        1.14300
H          0.31990       -2.68990        3.22960
H         -1.03110       -3.18990        0.51960
H         -0.00110       -4.34720        1.42000
Br         0.91320        2.03580        1.47250
Br         3.54440        0.81340        0.42370
Br         0.83870        0.16910       -1.05810
H          3.57070       -3.21880        0.49050
H          3.18400       -1.89910       -0.48280
