25
TSA8_9_OMe_CHF2_OMe
C          1.00640        0.04860       -1.52300
C          1.62980       -1.28250       -1.17440
O          2.05730        1.00090       -1.61620
H          0.26460        0.29970       -0.72320
C          1.26410       -1.98830        0.10350
C          0.23430        0.03970       -2.86850
C         -0.97040       -0.88730       -2.85700
C         -0.87570       -2.21910       -2.79300
O          2.45930       -1.77570       -1.92490
O         -0.20450        1.36970       -3.10040
H          0.95060       -0.28400       -3.66070
H         -1.96310       -0.45310       -2.93490
H          0.08160       -2.72270       -2.74480
H         -1.77610       -2.82430       -2.80390
C          1.87290        2.05360       -0.69470
H          2.66930        2.80780       -0.85920
H          1.96730        1.68450        0.35020
H          0.90050        2.56950       -0.85870
F         -0.09010       -2.26390        0.12340
F          1.96730       -3.17430        0.22540
H          1.51240       -1.33560        0.96610
C         -0.47740        1.58970       -4.47030
H          0.32790        1.21340       -5.13960
H         -0.52680        2.68440       -4.64080
H         -1.46340        1.15980       -4.74580
