25
TSA8_9_OMe_CHF2_OMe
C          0.94000       -0.01210       -1.69050
C          1.42720       -1.47570       -1.48590
O          2.01470        0.86600       -1.39630
H          0.03320        0.16370       -1.05750
C          1.56860       -1.86880       -0.01450
C          0.52060        0.12730       -3.15880
C         -0.63110       -0.86450       -3.45070
C         -0.59330       -2.08420       -2.51230
O          0.73630       -2.47270       -2.24410
O          0.13320        1.46310       -3.42850
H          1.42250       -0.16020       -3.75110
H         -1.63380       -0.39890       -3.33380
H         -1.15010       -2.92200       -2.98000
H         -1.11730       -1.86100       -1.55510
C          1.58530        1.92740       -0.57250
H          0.81290        2.54380       -1.08210
H          2.45320        2.58810       -0.37120
H          1.22420        1.55150        0.41050
F          0.32960       -1.90650        0.59910
F          2.15880       -3.11550        0.07730
H          2.21130       -1.13310        0.51270
C          0.04470        1.68550       -4.82030
H          0.94620        1.33140       -5.36850
H         -0.01420        2.77950       -4.99410
H         -0.88210        1.23120       -5.23190
