22
TSA8_9_F_Et_NH2
C          2.13520        0.17360       -0.32250
C          1.57380        1.23780       -0.92840
F          2.31860        0.12890        1.02250
H          2.43410       -0.69490       -0.90080
C          1.35220        1.23330       -2.42030
C          2.70720        4.65730       -1.14740
C          3.04910        3.79060       -0.18220
C          1.99140        3.07830        0.61590
O          1.18340        2.34010       -0.23140
N          3.69090        5.33010       -1.91260
H          1.65780        4.84900       -1.35630
H          4.09600        3.59480        0.03110
H          1.36890        3.83900        1.13230
H          2.45750        2.44180        1.39420
C         -0.12100        1.41870       -2.76230
H          1.70990        0.28630       -2.88130
H          1.93240        2.07100       -2.86250
H         -0.71950        0.57980       -2.35060
H         -0.24390        1.43720       -3.86580
H         -0.49710        2.37960       -2.34970
H          4.69530        5.17130       -1.74920
H          3.40070        5.98910       -2.65040
