20
TSA8_9_Br_Me_CH2F
C          1.97150        0.04270        0.22330
C          1.45980       -0.02020        1.47640
Br         2.47540       -1.42810       -0.89880
H          2.08780        1.01160       -0.25130
C          1.05910        1.25270        2.16800
C          3.33190       -1.25530        4.23700
C          3.37900       -1.80690        3.01480
C          2.11810       -2.24660        2.32270
O          1.25700       -1.17230        2.17880
C          4.57500       -0.80230        4.93890
H          2.37540       -1.12400        4.73580
H          4.33220       -1.93970        2.51100
H          1.62110       -3.01620        2.94820
H          2.35070       -2.72640        1.35970
H          1.64590        1.35370        3.10570
H         -0.01980        1.21240        2.42160
H          1.24180        2.15380        1.54470
F          5.42710       -1.87410        5.12980
H          4.30750       -0.37270        5.92660
H          5.08670       -0.02360        4.33570
