20
TSA8_9_Br_Me_CH2F
C          3.04220       -0.09830        1.99460
C          1.51450       -0.19530        1.67170
Br         4.06690       -0.93580        0.55810
H          3.36860        0.96500        1.99270
C          0.79300        1.09280        2.06700
C          3.28970       -0.74070        3.37240
C          2.82860       -2.21150        3.36470
C          1.66170       -2.42630        2.38500
O          0.84480       -1.27900        2.32420
C          4.72490       -0.59020        3.89710
H          2.63200       -0.19620        4.08600
H          3.62920       -2.93030        3.08460
H          1.06750       -3.30380        2.71290
H          2.02660       -2.67760        1.36450
H          0.86640        1.26300        3.16210
H         -0.27860        1.01920        1.78620
H          1.23320        1.95960        1.53060
F          5.63390       -1.26210        3.09990
H          4.78910       -1.00130        4.92710
H          5.00190        0.48470        3.93470
