19
TSA8_9_Me_OH_CN
C          1.57630       -0.00690        0.03480
C          1.37510       -0.07960        1.48170
C          1.70650       -1.00770       -1.00330
H          1.50040        0.99100       -0.34740
O          1.62180        1.14000        2.06480
C          2.32210       -4.20270        3.09800
C          2.23920       -3.16880        2.25360
C          0.93470       -2.44320        1.97460
O          0.96200       -1.10630        2.38410
C          3.62080       -4.76460        3.38280
H          1.43750       -4.60220        3.58830
H          3.15560       -2.86000        1.78520
H          0.14360       -2.92160        2.56450
H          0.57720       -2.57270        0.93960
H          1.57640       -2.06260       -0.75190
H          2.79170       -0.83260       -1.17330
H          1.20180       -0.81840       -1.96980
H          1.56120        1.06720        3.03520
N          4.67860       -5.18830        3.58500
