19
TSA8_9_Me_OH_CN
C          2.37900       -1.18710        1.25440
C          0.98010       -0.57790        1.58740
C          2.44170       -1.51430       -0.25020
H          3.16600       -0.42180        1.44180
O          1.11900        0.64800        2.25430
C          2.58410       -2.39510        2.19800
C          1.47200       -3.42880        1.98130
C          0.11520       -2.72900        1.77640
O          0.12600       -1.43650        2.34640
C          3.91100       -3.02580        2.17590
H          2.46540       -2.00400        3.23210
H          1.65390       -4.10200        1.11210
H         -0.67460       -3.34810        2.24860
H         -0.15590       -2.65950        0.69890
H          1.71840       -2.29970       -0.54630
H          3.45940       -1.84080       -0.54600
H          2.19120       -0.60000       -0.83380
H          1.55700        0.45140        3.12370
N          4.94250       -3.55090        2.19290
