22
TSA8_9_OMe_CHF2_OH
C          1.52040        0.08390        0.04000
C          1.32770       -1.15190        0.52080
O          1.59550        0.27200       -1.29940
H          1.58780        0.93380        0.71320
C          1.21920       -1.39580        2.00860
C         -0.25090       -4.13810       -2.66800
C         -0.26350       -3.04060       -1.89760
C          0.20150       -3.06190       -0.47070
O          1.25330       -2.17700       -0.36420
O         -0.65020       -4.08810       -3.95890
H          0.08520       -5.08610       -2.26460
H         -0.60290       -2.09480       -2.31230
H          0.54140       -4.07540       -0.17020
H         -0.65210       -2.76340        0.17320
C          1.65900        1.51890       -1.87010
H          1.70830        1.41070       -2.97300
H          2.56510        2.05850       -1.51650
H          0.74790        2.10170       -1.61050
F         -0.00590       -1.94510        2.33220
F          2.22300       -2.26180        2.40260
H          1.33090       -0.44990        2.58200
H         -0.93990       -3.26640       -4.38220
