22
TSA8_9_OMe_CHF2_OH
C          0.98960       -1.18330       -1.11610
C          1.59240       -1.98980        0.07040
O          1.95580       -0.24200       -1.55520
H          0.02740       -0.71520       -0.78800
C          1.66840       -1.19080        1.37190
C          0.67420       -2.19130       -2.22660
C         -0.34640       -3.22820       -1.71390
C         -0.28270       -3.38130       -0.18330
O          1.04920       -3.29780        0.27640
O          0.18030       -1.54430       -3.36870
H          1.63310       -2.70870       -2.46740
H         -1.39430       -2.95610       -1.96740
H         -0.72680       -4.35600        0.10590
H         -0.90000       -2.60070        0.31770
C          1.35880        1.00990       -1.81150
H          0.62540        0.94260       -2.64400
H          2.15260        1.71710       -2.12830
H          0.89570        1.43240       -0.89210
F          0.39910       -0.92000        1.84970
F          2.36540       -1.91670        2.32030
H          2.20220       -0.23390        1.19630
H          0.25490       -2.19280       -4.11640
