18
TSA8_9_Br_CN_Me
C          2.89260        0.78480       -1.57740
C          1.71900       -0.13970       -1.80130
Br         3.13470        1.10520        0.33780
H          3.79820        0.22400       -1.90700
C          1.95670       -1.56510       -1.83950
C          2.78090        2.08380       -2.41520
C          1.78310        3.05090       -1.80160
C          0.61060        3.34690       -2.37230
O          0.57160        0.27700       -1.77250
C          4.15320        2.76140       -2.51840
H          2.47450        1.79860       -3.44530
H          2.02530        3.51820       -0.84790
H          0.30010        2.89160       -3.30860
H         -0.06380        4.04310       -1.88110
N          2.17080       -2.70240       -1.88400
H          4.87570        2.06230       -2.99430
H          4.53720        3.02790       -1.51030
H          4.09530        3.67610       -3.14360
