18
TSA8_9_Br_CN_Me
C          1.68730       -0.02560       -0.06140
C          1.47450       -0.20860       -1.39320
Br         1.81340        1.58020        0.97610
H          1.63740       -0.91160        0.57960
C          1.42640       -1.56130       -1.85160
C          3.11510        3.35520       -3.28990
C          2.68240        2.55680       -2.30880
C          1.25490        2.11320       -2.25190
O          1.23550        0.74490       -2.34190
C          4.52780        3.85430       -3.33650
H          2.43490        3.68100       -4.07030
H          3.37520        2.21700       -1.54160
H          0.64930        2.54830       -3.09480
H          0.76430        2.45530       -1.32570
N          1.39370       -2.66260       -2.19660
H          5.26390        3.02520       -3.39730
H          4.73540        4.46510       -2.43310
H          4.66050        4.50810       -4.22350
