18
TSA8_9_Br_CN_Me
C          2.88470        1.00950       -1.42810
C          1.46920        0.40860       -1.67250
Br         2.89140        1.65810        0.41410
H          3.67670        0.22540       -1.48380
C          1.51530       -1.00660       -2.06680
C          3.11330        2.12220       -2.49010
C          1.99860        3.15730       -2.33550
C          0.62950        2.47840       -2.28990
O          0.71450        1.11450       -2.65900
C          4.45740        2.85250       -2.59220
H          3.00340        1.61840       -3.47440
H          2.13050        3.77000       -1.41250
H         -0.00660        3.01250       -3.02470
H          0.14480        2.58130       -1.29540
N          1.55330       -2.12010       -2.38010
H          5.28840        2.15670       -2.82860
H          4.69810        3.45690       -1.69480
H          4.37620        3.55420       -3.45810
