16
TSA8_9_NH2_Br_Cl
C          2.82040       -0.71840        0.83840
C          1.33250       -1.00510        1.21740
N          3.00430       -0.73270       -0.61650
H          3.11630        0.29460        1.19060
Br         0.70670        0.30150        2.50950
C          3.71610       -1.75780        1.52640
C          3.28870       -3.18490        1.15270
C          1.75920       -3.28190        1.00790
O          1.12400       -2.29530        1.79050
Cl         5.45010       -1.49810        1.19540
H          3.56160       -1.64230        2.62210
H          3.74520       -3.55250        0.20780
H          1.42900       -4.29330        1.32190
H          1.43650       -3.18300       -0.05300
H          2.43510        0.03490       -1.04200
H          2.70740       -1.63810       -1.04240
