20
TSA8_9_Me_OH_NO2
C          1.46610       -2.14840        0.75890
C          1.16040       -0.80190        1.44510
C          1.15220       -2.01770       -0.74220
H          2.55450       -2.36240        0.84200
O          1.71570       -0.71780        2.72780
C          0.66900       -3.25660        1.50110
C         -0.81520       -2.87690        1.58560
C         -0.93820       -1.48240        2.21370
O         -0.23000       -0.50780        1.46190
N          0.83770       -4.57660        0.91590
H          1.05700       -3.29000        2.54520
H         -1.28200       -2.87290        0.57790
H         -0.59800       -1.49290        3.27330
H         -2.01190       -1.20270        2.23350
H          1.43570       -2.93710       -1.29150
H          1.75310       -1.18910       -1.17470
H          0.08080       -1.79630       -0.92530
H          2.29990        0.08130        2.69420
O          0.41480       -4.82450       -0.17280
O          1.39610       -5.53550        1.62280
