18
TSA8_9_I_OMe_I
C          3.44170       -0.53660        1.00900
C          2.31770        0.01050        1.85100
I          2.74790       -0.75470       -1.01870
H          4.23460        0.24280        0.99790
O          2.48180        1.21270        2.46070
C          4.11040       -1.82570        1.55890
C          3.26120       -3.07770        1.51940
C          2.23250       -3.29550        2.34310
O          1.25550       -0.58820        1.93610
I          5.90950       -2.20470        0.43780
H          4.46270       -1.65620        2.59980
H          3.52060       -3.86540        0.81810
H          1.94820       -2.57730        3.10160
H          1.67650       -4.22530        2.27640
C          1.51800        1.82080        3.23630
H          1.90840        2.79130        3.60630
H          1.26860        1.17930        4.10850
H          0.60380        2.00940        2.63380
