18
TSA8_9_I_OMe_I
C          1.88750       -0.14800       -0.04910
C          1.85230        0.00590        1.29180
I          1.77380       -1.90510       -1.23490
H          1.95490        0.74990       -0.65700
O          1.90200        1.27830        1.76180
C          4.53960       -2.69580        3.12690
C          3.79170       -2.20810        2.13170
C          2.28830       -2.28520        2.15940
O          1.76410       -1.01010        2.20410
I          6.64220       -2.52850        3.06990
H          4.08370       -3.17400        3.98870
H          4.27600       -1.72580        1.28800
H          1.95010       -2.81890        3.07290
H          1.90060       -2.86800        1.31000
C          1.97880        1.58660        3.10160
H          2.02070        2.68900        3.22120
H          2.90040        1.14590        3.54050
H          1.08530        1.19850        3.63880
