21
TSA8_9_CH2F_NO2_NH2
C          2.78510        0.37980       -1.19230
C          1.37410       -0.07660       -1.54930
C          2.82980        0.74080        0.30730
H          3.48730       -0.46740       -1.34190
N          1.12230       -1.34320       -1.98820
C          3.24730        1.51660       -2.15520
C          2.45150        2.79750       -1.98850
C          1.70720        3.30700       -2.97410
O          0.44700        0.71500       -1.43160
N          4.67660        1.79680       -1.99530
H          3.11120        1.12070       -3.18860
H          2.49110        3.32600       -1.04080
H          1.63860        2.81660       -3.93980
H          1.15680        4.22870       -2.81390
F          4.11430        1.03560        0.72230
H          2.48040       -0.12940        0.90350
H          2.16220        1.59760        0.53670
O          0.00630       -1.67360       -2.25720
O          2.09560       -2.21960       -2.12160
H          4.85820        2.31360       -1.10620
H          4.99200        2.41240       -2.78060
