21
TSA8_9_CH2F_NO2_NH2
C          2.76470        0.44440       -1.30150
C          1.26540        0.21200       -1.69970
C          2.82930        1.12660        0.07960
H          3.27980       -0.53550       -1.18580
N          1.03180       -1.18350       -2.02090
C          3.44880        1.23300       -2.44180
C          2.70830        2.55500       -2.72240
C          1.19240        2.37860       -2.53630
O          0.82460        1.03960       -2.78040
N          4.88060        1.44570       -2.22570
H          3.33560        0.59770       -3.35000
H          3.03660        3.40080       -2.08010
H          0.65690        3.05960       -3.22940
H          0.86670        2.67910       -1.51480
F          4.13390        1.22170        0.52710
H          2.27100        0.51000        0.81610
H          2.37790        2.13790        0.07020
O          0.61510       -1.50170       -3.09400
O          1.23430       -2.10760       -1.10670
H          5.03390        2.15520       -1.47480
H          5.30060        1.82800       -3.10410
