22
TSA8_9_NO2_CCl3_Me
C          2.31960       -2.06430        0.26310
C          1.60560       -0.97860        1.04960
N          2.48370       -1.65040       -1.12350
H          3.33170       -2.19480        0.71150
C          2.29410       -0.28050        2.20330
C          1.60680       -3.44250        0.39680
C          0.20500       -3.45620       -0.17920
C         -0.87110       -3.68350        0.58010
O          0.46500       -0.66290        0.74110
C          2.43150       -4.55010       -0.27000
H          1.56180       -3.68070        1.48420
H          0.05810       -3.28950       -1.24080
H         -0.78120       -3.86110        1.64700
H         -1.85850       -3.69130        0.12970
O          3.57990       -1.51830       -1.57800
O          1.44040       -1.36080       -1.87210
Cl         2.74220       -1.46730        3.45560
Cl         3.76790        0.53750        1.62360
Cl         1.24200        0.94960        2.96090
H          3.44870       -4.59170        0.17490
H          2.52570       -4.37260       -1.36270
H          1.94510       -5.53650       -0.11030
