18
TSA8_9_H_CN_CBr3
C          1.62310       -0.02380       -0.03600
C          1.49730       -0.18120       -1.37230
H          1.58440        0.94580        0.44900
H          1.53050       -0.88150        0.63270
C          1.31840       -1.50990       -1.88200
C          3.33670        3.46330       -2.84960
C          2.85380        2.57030       -1.98830
C          1.42960        2.19500       -2.03190
O          1.40480        0.84220       -2.27190
C          4.77210        3.86720       -2.79150
H          2.67740        3.93340       -3.58530
H          3.50000        2.08340       -1.25010
H          0.88830        2.75500       -2.86150
H          0.94980        2.43190       -1.06440
N          1.17620       -2.58780       -2.27220
Br         5.16340        5.16180       -4.13620
Br         5.15550        4.70550       -1.08840
Br         5.96190        2.38360       -3.10410
