23
TSA8_9_CF3_CBr3_CF3
C          2.10780       -1.97030        0.77520
C          0.83990       -1.99560        1.62340
C          1.83190       -1.11820       -0.49650
H          2.90810       -1.46040        1.35580
C          0.76920       -1.33080        2.99270
C          2.58910       -3.41910        0.39860
C          3.87210       -3.35960       -0.40620
C          3.95180       -3.82960       -1.65520
O         -0.15550       -2.54490        1.17190
C          2.84790       -4.33780        1.61330
H          1.78960       -3.90320       -0.20730
H          4.75820       -2.92220        0.04620
H          3.09120       -4.27460       -2.14490
H          4.88970       -3.76850       -2.19720
F          2.98530       -0.93660       -1.23720
F          0.88140       -1.72880       -1.29690
F          1.36720        0.13560       -0.14530
Br         1.11360        0.57140        2.85470
Br        -0.98830       -1.53810        3.80050
Br         2.05740       -2.06920        4.23610
F          1.69340       -4.52690        2.35030
F          3.26900       -5.58120        1.17240
F          3.83230       -3.80490        2.42690
