20
TSA8_9_H_CF3_CHF2
C          2.03050        2.38690       -0.26770
C          0.93420        2.68350       -1.26090
H          1.58470        1.75210        0.52630
H          2.84250        1.80100       -0.75310
C          1.04500        2.22680       -2.68930
C          2.62480        3.67350        0.35830
C          3.63270        3.32560        1.43640
C          3.28890        2.64830        2.53750
O         -0.06290        3.28710       -0.89140
C          3.28400        4.56580       -0.71250
H          1.80620        4.25800        0.83470
H          4.66720        3.64320        1.33380
H          2.26810        2.31870        2.70130
H          4.03610        2.42440        3.29180
F         -0.08020        2.59750       -3.40600
F          2.15810        2.79690       -3.27760
F          1.16550        0.85010       -2.72620
F          3.76930        5.72490       -0.13170
F          4.32800        3.89970       -1.33240
H          2.54030        4.85820       -1.48250
