20
TSA8_9_H_CF3_CHF2
C          1.85420        0.16050       -0.14570
C          1.50970        1.34520       -0.69270
H          2.26340        0.06540        0.85010
H          1.72350       -0.76920       -0.68880
C          0.92420        1.41510       -2.08220
C          2.98920        5.08660        0.34120
C          3.35250        3.89450        0.83660
C          2.33330        2.83280        1.12570
O          1.65530        2.53750       -0.04530
C          4.00280        6.14600        0.03150
H          1.94000        5.29720        0.15000
H          4.40110        3.68180        1.02770
H          1.61130        3.21080        1.88000
H          2.86050        1.96110        1.55450
F         -0.32570        2.00150       -2.01920
F          1.74370        2.19700       -2.87500
F          0.80040        0.16720       -2.66980
F          4.69010        6.49450        1.17970
F          4.89460        5.68050       -0.91770
H          3.48840        7.04440       -0.36890
