20
TSA8_9_H_CH2F_Me
C          1.86920        0.13870       -0.12110
C          1.51610        1.28660       -0.73320
H          2.26370        0.10350        0.88510
H          1.75320       -0.81560       -0.62610
C          0.94960        1.24580       -2.12450
C          2.77180        5.17540        0.18260
C          3.24910        4.01570        0.65580
C          2.32980        2.87810        0.98870
O          1.63040        2.51440       -0.15030
C          3.68870        6.30900       -0.15520
H          1.70250        5.30460        0.03630
H          4.31860        3.88890        0.80360
H          1.61160        3.20760        1.76910
H          2.94180        2.05250        1.39870
F         -0.31440        1.80510       -2.12590
H          0.88240        0.21020       -2.52230
H          1.60430        1.83610       -2.79900
H          4.40240        5.99480       -0.94580
H          4.25250        6.62340        0.74820
H          3.09610        7.17050       -0.52820
