24
TSA8_9_Et_I_OMe
C          2.42840        0.78070        1.25130
C          1.16730        1.40740        0.69340
C          2.46890       -0.68590        0.73230
H          3.27820        1.34210        0.80360
I          1.29920        3.02370       -0.66010
C          2.47840        1.02130        2.79790
C          1.53670        0.11630        3.58400
C          0.49180        0.59380        4.26910
O          0.06440        0.99110        1.01410
O          3.81100        1.16060        3.29130
H          2.09780        2.06090        2.93190
H          1.69350       -0.95750        3.58350
H          0.27180        1.65650        4.29980
H         -0.15870       -0.08750        4.80800
C          3.71990       -1.49310        1.04510
H          2.40060       -0.63970       -0.37750
H          1.58510       -1.25290        1.09820
H          4.63070       -0.95160        0.71330
H          3.66770       -2.46280        0.50540
H          3.76460       -1.74380        2.11570
C          4.44260        0.02700        3.84380
H          4.99910        0.35340        4.74560
H          5.19530       -0.35810        3.12720
H          3.77440       -0.77880        4.19350
