24
TSA8_9_Et_I_OMe
C          1.80050        0.25950       -0.00660
C          1.35340        1.42760        0.52130
C          1.87770       -1.12400        0.59280
H          2.14920        0.30660       -1.03470
I          1.41410        3.11120       -0.75560
C          2.44010        1.13980        4.73720
C          2.12200        0.68610        3.50880
C          0.75480        0.91710        2.91240
O          0.83970        1.67600        1.76360
O          3.65920        0.95370        5.31510
H          1.69640        1.68330        5.31190
H          2.85520        0.14640        2.92670
H          0.13000        1.48500        3.63410
H          0.20010       -0.02170        2.72680
C          3.31400       -1.63770        0.54140
H          1.23970       -1.79940       -0.01600
H          1.52680       -1.19770        1.62590
H          3.68070       -1.65730       -0.50750
H          3.35600       -2.67020        0.94820
H          3.98310       -0.98870        1.14460
C          4.72780        0.28240        4.75730
H          5.57800        0.29970        5.46960
H          5.04450        0.77900        3.81530
H          4.45400       -0.77570        4.55790
