25
TSA8_9_Me_Et_NH2
C          2.40460        0.34910        0.92590
C          1.26660        1.31940        0.65630
C          1.83320       -1.05930        1.16600
H          3.04050        0.28790        0.01510
C          1.19150        2.09690       -0.63080
C          3.31490        0.86960        2.07530
C          2.57260        1.06930        3.38080
C          2.46070        2.27730        3.94350
O          0.38450        1.47100        1.48960
N          4.45680       -0.02230        2.28300
H          3.71950        1.84870        1.72960
H          2.11910        0.21550        3.87460
H          2.89880        3.15680        3.48040
H          1.92190        2.39410        4.87730
H          1.19060       -1.08500        2.07060
H          2.64610       -1.80490        1.27990
H          1.21990       -1.37010        0.29270
C          2.36230        3.06920       -0.75260
H          0.25040        2.68910       -0.65420
H          1.18400        1.39430       -1.49120
H          2.35610        3.77930        0.10270
H          2.26890        3.64840       -1.69470
H          3.33110        2.52810       -0.76680
H          4.15010       -0.92190        2.71860
H          5.13420        0.43180        2.93820
