25
TSA8_9_Me_Et_NH2
C          2.43080        0.14640        0.96420
C          1.32570        1.21430        0.79880
C          1.75450       -1.17180        1.38170
H          2.91770       -0.05140       -0.01600
C          1.39790        2.21780       -0.37140
C          3.48850        0.65120        1.97350
C          2.80110        1.11610        3.26090
C          1.75650        2.17930        2.90770
O          0.76320        1.69530        2.01430
N          4.51520       -0.35600        2.25120
H          3.99540        1.53310        1.52990
H          2.31660        0.26930        3.79040
H          2.25330        3.08400        2.51500
H          1.25670        2.48990        3.84840
H          1.21560       -1.07750        2.34640
H          2.49600       -1.99330        1.45660
H          1.01520       -1.46970        0.60730
C          2.41040        3.35110       -0.24170
H          0.39000        2.66380       -0.50860
H          1.63530        1.64370       -1.29260
H          2.14870        4.02790        0.59300
H          2.38430        3.96200       -1.16880
H          3.43840        2.95790       -0.12170
H          4.11130       -1.14890        2.79970
H          5.26500        0.07670        2.83810
