18
TSA8_9_OH_Me_F
C          2.78400        1.09560       -0.52100
C          1.35810        1.36410       -0.94290
O          2.78490        0.07950        0.44950
H          3.31980        0.74050       -1.43430
C          0.95400        1.20690       -2.37910
C          3.57200        2.32880       -0.01080
C          3.08140        2.92860        1.28700
C          1.96140        3.64960        1.38850
O          0.51160        1.66230       -0.11510
F          4.88090        1.92270        0.19000
H          3.59470        3.11970       -0.79190
H          3.69350        2.80820        2.17670
H          1.33430        3.84930        0.52800
H          1.67660        4.07190        2.34680
H          3.63650       -0.42150        0.34940
H          1.53720        1.91080       -3.00880
H         -0.12810        1.42190       -2.51030
H          1.15380        0.16660       -2.71170
