18
TSA8_9_OH_Me_F
C          1.81710        0.14570       -0.16450
C          1.43690        1.18760       -0.93800
O          2.18430        0.29340        1.12240
H          1.81560       -0.85780       -0.57990
C          1.01360        0.93360       -2.35840
C          4.22120        4.19720        0.26410
C          3.51320        3.06730        0.36940
C          2.01750        3.08190        0.56070
O          1.39810        2.48920       -0.52520
F          5.56520        4.14030        0.07790
H          3.73890        5.16840        0.32180
H          4.02780        2.11520        0.30040
H          1.65420        4.12980        0.62500
H          1.72750        2.59160        1.51150
H          2.42930       -0.47410        1.65660
H          1.68020        1.50290       -3.04240
H         -0.03020        1.28310       -2.50000
H          1.06690       -0.14090       -2.63430
