18
TSA8_9_OH_Me_F
C          2.93040        1.14950       -0.32340
C          1.42920        1.45400       -0.65180
O          3.04470        0.58980        0.95900
H          3.36720        0.43340       -1.05820
C          1.15840        1.30560       -2.14860
C          3.70510        2.46840       -0.36750
C          3.12680        3.46310        0.65270
C          1.63570        3.18940        0.91860
O          0.99110        2.75920       -0.25940
F          5.05540        2.27280       -0.13550
H          3.58280        2.90090       -1.38360
H          3.64730        3.41870        1.63400
H          1.15710        4.11390        1.30240
H          1.50080        2.42360        1.71610
H          2.65680       -0.32260        0.90460
H          1.75050        2.04160       -2.73220
H          0.07940        1.47440       -2.34820
H          1.41610        0.27880       -2.48350
