23
TSA8_9_NO2_OMe_Me
C          1.69570       -0.14030        0.08270
C          1.72930        1.04670       -0.56590
N          1.19830       -0.36040        1.40000
H          2.05300       -1.01090       -0.46490
O          2.13240        1.03090       -1.86230
C          4.10120        4.14860        0.91040
C          3.48120        2.96160        0.89400
C          1.99580        2.82510        1.10170
O          1.38720        2.24370       -0.00370
C          5.58590        4.23330        0.73380
H          3.53630        5.06390        1.06110
H          4.06280        2.05580        0.74710
H          1.52380        3.81590        1.27360
H          1.85860        2.23400        2.01930
O          1.31240       -1.44440        1.88260
O          0.39010        0.50280        1.97230
C          2.16620        2.14920       -2.66690
H          2.51730        1.85960       -3.67830
H          2.86420        2.90500       -2.24670
H          1.14880        2.58610       -2.75590
H          5.87850        3.80680       -0.24830
H          6.09250        3.66760        1.54530
H          5.91150        5.29350        0.78090
