22
TSA8_9_CBr3_Me_NH2
C          1.43500       -0.37830       -0.00090
C          2.07670       -1.22110        0.85300
C          1.98280        0.19750       -1.29390
H          0.43180       -0.06160        0.25700
C          3.48710       -1.69720        0.62740
C          0.43600       -3.44310        4.06220
C         -0.11890       -3.14650        2.87820
C          0.11810       -1.81460        2.22850
O          1.47460       -1.66880        1.99180
N          0.21890       -4.70050        4.67820
H          1.06340       -2.71230        4.56520
H         -0.75030       -3.87460        2.37550
H         -0.23090       -1.01130        2.91160
H         -0.46910       -1.78090        1.28770
Br         0.64600        1.35460       -2.09390
Br         3.55800        1.29330       -1.00380
Br         2.36800       -1.19150       -2.59210
H          3.79250       -2.37240        1.45440
H          4.19850       -0.85000        0.61410
H          3.56190       -2.27410       -0.31420
H         -0.36370       -5.42180        4.22900
H          0.65350       -4.90280        5.58960
