19
TSA8_9_NO2_CHF2_H
C          1.70580       -0.08340        0.01420
C          1.48270       -1.40700       -0.20890
N          1.89360        0.91450       -0.98890
H          1.71410        0.26090        1.04610
C          1.20410       -2.31260        0.96130
C          4.04520       -3.47360       -3.50730
C          3.05610       -3.28410       -2.63100
C          2.50730       -1.91330       -2.36790
O          1.49030       -2.00050       -1.43440
H          4.43050       -4.47260       -3.68350
H          4.47580       -2.63840       -4.05170
H          2.64720       -4.14040       -2.10130
H          2.10160       -1.50460       -3.31750
H          3.33590       -1.26640       -2.00160
O          2.12740        2.03410       -0.64950
O          1.62830        0.68080       -2.25400
F         -0.03710       -2.89940        0.80010
F          2.16850       -3.30170        1.01250
H          1.21000       -1.76700        1.92930
