14
TSA8_9_Cl_Cl_F
C          1.74280        1.84630        0.70840
C          0.56880        2.29690       -0.11890
Cl         1.26720        0.34640        1.55670
H          2.58730        1.60460        0.02720
Cl         0.70150        2.38620       -1.86820
C          2.19000        2.97730        1.66460
C          3.44630        2.65820        2.44310
C          3.50800        1.73010        3.40360
O         -0.48500        2.60370        0.41650
F          2.45230        4.10400        0.90130
H          1.37440        3.23260        2.37600
H          4.34360        3.23380        2.23290
H          2.64460        1.14360        3.69030
H          4.44090        1.56340        3.93230
