17
TSA8_9_NO2_CN_F
C          1.24670       -1.70050        0.37010
C          2.20090       -1.52010        1.51960
N          1.79050       -1.16630       -0.87650
H          0.34930       -1.09890        0.63080
C          1.68140       -0.95240        2.74220
C          0.82350       -3.19370        0.29560
C         -0.57640       -3.33660       -0.23850
C         -1.60720       -2.85440        0.47410
O          3.32680       -1.99100        1.49510
F          1.72890       -3.94980       -0.43070
H          0.78420       -3.62990        1.31920
H         -0.76490       -3.85300       -1.17310
H         -1.43680       -2.36020        1.43060
H         -2.62750       -2.95760        0.12760
O          2.11990       -0.01960       -0.93440
O          1.90750       -1.91640       -1.95280
N          1.25720       -0.52350        3.72850
