17
TSA8_9_NO2_CN_F
C          1.38170       -1.93240       -0.12280
C          1.55060       -1.73320        1.42910
N          2.50180       -1.44420       -0.90850
H          0.47250       -1.40700       -0.49220
C          1.45190       -0.35040        1.90630
C          1.16070       -3.44950       -0.27180
C         -0.21770       -3.76120        0.32450
C         -0.49300       -2.87040        1.55450
O          0.71770       -2.57950        2.23040
F          1.21160       -3.91210       -1.57360
H          1.94680       -3.98740        0.31140
H         -1.01500       -3.52810       -0.42070
H         -1.22070       -3.37410        2.22120
H         -0.98080       -1.91240        1.25290
O          2.93840       -0.36580       -0.64240
O          2.53230       -1.79400       -2.17830
N          1.37130        0.74220        2.28250
