24
TSA8_9_Me_CCl3_OMe
C          2.67010       -1.69420       -0.61330
C          1.39760       -2.14190        0.09080
C          2.48320       -0.27320       -1.16310
H          3.48870       -1.62560        0.13840
C          1.37870       -2.39720        1.58510
C          3.14160       -2.73580       -1.67500
C          2.15700       -2.96370       -2.81270
C          1.91700       -2.05870       -3.76620
O          0.37320       -2.28190       -0.56140
O          3.37110       -3.95630       -0.98670
H          4.10120       -2.35160       -2.09780
H          1.65060       -3.92200       -2.88350
H          1.21780       -2.28680       -4.56400
H          2.42190       -1.09970       -3.78160
H          1.62980       -0.21210       -1.86700
H          3.41220        0.07090       -1.66630
H          2.26510        0.42550       -0.32710
Cl         2.53750       -3.68030        2.01590
Cl         1.81660       -0.90850        2.46080
Cl        -0.23880       -2.90990        2.14750
C          4.16810       -4.84330       -1.74750
H          5.01980       -4.34180       -2.25860
H          3.54140       -5.39980       -2.47600
H          4.62010       -5.58310       -1.05580
