24
TSA8_9_Me_CCl3_OMe
C          2.91950       -2.09990       -0.66530
C          1.45300       -2.43190       -0.26720
C          3.11840       -0.60790       -1.00720
H          3.62730       -2.30750        0.16630
C          0.94030       -1.95600        1.10710
C          3.30610       -3.02870       -1.85790
C          2.05320       -3.53620       -2.61340
C          0.94040       -2.48280       -2.60290
O          0.53480       -2.06840       -1.29630
O          4.00300       -4.15250       -1.34180
H          3.96570       -2.43610       -2.53610
H          1.63780       -4.42050       -2.08040
H          0.06000       -2.91840       -3.12100
H          1.26570       -1.59960       -3.18890
H          2.46040       -0.26830       -1.82950
H          4.17230       -0.42980       -1.31070
H          2.93950        0.02800       -0.12120
Cl         2.05940       -2.42450        2.41380
Cl         0.65310       -0.19670        1.17650
Cl        -0.61560       -2.76070        1.43030
C          4.79440       -4.75540       -2.34320
H          5.57040       -4.05670       -2.72560
H          4.16620       -5.16010       -3.16640
H          5.32990       -5.61510       -1.89100
