24
TSA8_9_CH2F_OMe_CHF2
C          3.19660       -1.24330        0.46520
C          2.15410       -0.90200        1.50810
C          2.81760       -0.55630       -0.86390
H          4.15040       -0.79120        0.81650
O          2.52830       -0.18820        2.60030
C          3.39770       -2.79510        0.40390
C          2.18290       -3.51330       -0.14910
C          1.46830       -4.37280        0.58350
O          0.99240       -1.26030        1.36500
C          4.64980       -3.24590       -0.37460
H          3.57990       -3.12030        1.45460
H          1.88250       -3.33290       -1.17660
H          1.72970       -4.58740        1.61470
H          0.60690       -4.86800        0.14710
F          3.82410       -0.66070       -1.80210
H          2.65950        0.52870       -0.68170
H          1.87420       -0.96840       -1.27920
C          1.67640        0.14910        3.63020
H          2.23710        0.73600        4.38680
H          1.27980       -0.76960        4.11270
H          0.83670        0.76710        3.24720
F          4.54150       -3.01310       -1.73210
F          5.77910       -2.61460        0.11650
H          4.78170       -4.34090       -0.23710
