24
TSA8_9_CH2F_OMe_CHF2
C          1.88380        0.00290       -0.02260
C          1.78890       -0.57120        1.20500
C          1.73450       -0.58180       -1.40200
H          2.09480        1.06910       -0.03510
O          1.97390        0.26520        2.25860
C          3.83210       -4.27190        0.93120
C          3.12710       -3.24700        0.42880
C          1.67430       -3.05020        0.76830
O          1.53390       -1.88570        1.49250
C          5.29260       -4.43130        0.63980
H          3.35250       -4.99990        1.58030
H          3.61900       -2.51830       -0.20970
H          1.32330       -3.88320        1.41560
H          1.00850       -3.08350       -0.10870
F          2.90260       -0.36440       -2.10690
H          0.90770       -0.05210       -1.91740
H          1.50970       -1.64780       -1.45320
C          2.14920       -0.17530        3.55340
H          2.26420        0.69960        4.22390
H          3.07210       -0.79330        3.61630
H          1.27550       -0.77580        3.88490
F          5.49460       -4.56970       -0.72150
F          5.98440       -3.32530        1.10000
H          5.67670       -5.33450        1.15810
