22
TSA8_9_Cl_Et_NO2
C          3.04850       -1.17930        0.57060
C          1.64740       -0.97460        1.10630
Cl         3.31440       -0.05650       -0.80050
H          3.77450       -0.89820        1.36270
C          1.41550       -0.49130        2.51560
C          3.31050       -2.66260        0.19700
C          2.44810       -3.12550       -0.95920
C          1.56110       -4.11730       -0.83370
O          0.68350       -1.18020        0.38300
N          4.71070       -2.87530       -0.12900
H          3.07540       -3.26950        1.10260
H          2.55330       -2.64030       -1.92570
H          1.42180       -4.63230        0.11130
H          0.96390       -4.41970       -1.68800
C          1.94850       -1.48080        3.54980
H          0.32500       -0.36010        2.69060
H          1.91090        0.49380        2.65030
H          1.44650       -2.46480        3.43350
H          1.74360       -1.09420        4.57040
H          3.04480       -1.61800        3.44540
O          5.20910       -2.34010       -1.07290
O          5.43730       -3.68620        0.60990
