20
TSA8_9_F_NH2_OMe
C          1.90580        0.21030       -0.26020
C          1.39220        1.18680       -1.03970
F          2.48840        0.44630        0.94250
H          1.84800       -0.82340       -0.58740
N          0.78340        0.82600       -2.26940
C          4.33070        4.22030       -0.24720
C          3.61110        3.09980       -0.04380
C          2.13900        3.15120        0.27900
O          1.41230        2.51260       -0.71020
O          5.65600        4.21470       -0.55900
H          3.84210        5.18640       -0.16680
H          4.08240        2.12670       -0.11920
H          1.79550        4.20720        0.32290
H          1.92820        2.70880        1.27350
H          0.38890        1.55650       -2.88030
H          0.73560       -0.15630       -2.57790
C          6.43910        3.09380       -0.74740
H          7.47180        3.41100       -0.99850
H          6.04140        2.48660       -1.58850
H          6.47040        2.48520        0.18130
