16
TSA8_9_H_Cl_NO2
C          2.90430        0.97730       -1.10040
C          1.35760        1.11430       -1.02190
H          3.32000        0.83810       -0.07850
H          3.18460        0.08360       -1.69910
Cl         0.64060        0.65280       -2.58980
C          3.46890        2.27370       -1.68690
C          3.09280        3.46010       -0.77320
C          1.82640        3.15680        0.05000
O          0.88830        2.42990       -0.71410
N          4.90360        2.19590       -1.88160
H          2.97500        2.43190       -2.67230
H          3.88960        3.71970       -0.04220
H          1.37890        4.11090        0.39710
H          2.07800        2.57940        0.96960
O          5.63300        2.01100       -0.95400
O          5.40980        2.31630       -3.08980
