20
TSA8_9_OMe_Br_NH2
C          0.56950       -1.24950       -0.92600
C          1.34440       -0.99970        0.34840
O          1.39930       -1.02750       -2.05480
H         -0.33090       -0.59060       -0.95510
Br         0.74360        0.31950        1.59440
C          0.05860       -2.70600       -0.97200
C         -0.86380       -2.99230        0.19550
C         -0.58620       -3.93220        1.10420
O          2.36090       -1.63200        0.58940
N         -0.65130       -2.94710       -2.22910
H          0.94080       -3.38580       -0.94180
H         -1.77840       -2.41480        0.29890
H          0.31770       -4.52980        1.03790
H         -1.27070       -4.10790        1.92780
C          1.57050        0.35570       -2.28580
H          2.08490        0.48430       -3.26000
H          2.21900        0.81060       -1.50600
H          0.59900        0.89170       -2.37030
H         -1.50330       -2.34240       -2.28680
H         -0.94990       -3.94910       -2.27590
