20
TSA8_9_Et_H_I
C          1.76840        0.25750        0.08630
C          1.32200        1.21970        0.93120
C          1.90660       -1.23320        0.28160
H          2.06160        0.60460       -0.90160
H          1.30570        2.22540        0.52220
C          2.67070       -0.12830        4.82780
C          2.27900       -0.25030        3.55510
C          0.87120        0.07240        3.12100
O          0.86640        1.11300        2.21540
I          4.65550       -0.58450        5.38210
H          1.98340        0.20700        5.59850
H          3.00110       -0.58520        2.82250
H          0.28100        0.40050        4.00340
H          0.33070       -0.80510        2.71910
C          3.34890       -1.66530        0.03200
H          1.25390       -1.73930       -0.46110
H          1.60890       -1.59520        1.27000
H          3.66440       -1.38660       -0.99630
H          3.43200       -2.76750        0.13930
H          4.03350       -1.18360        0.76200
