19
TSA8_9_OH_OH_Me
C          3.12390        0.14080       -1.47560
C          1.67960       -0.24740       -1.67020
O          3.34250        0.41220       -0.11310
H          3.73260       -0.74020       -1.79340
O          1.37600       -1.46770       -2.16170
C          3.52660        1.35200       -2.35530
C          2.77330        2.60440       -1.96130
C          1.96810        3.24550       -2.81390
O          0.78290        0.52890       -1.37330
C          5.03230        1.62370       -2.25480
H          3.31020        1.08980       -3.41620
H          2.89090        2.99740       -0.95510
H          1.82290        2.88720       -3.82820
H          1.44540        4.14130       -2.49510
H          4.25480        0.09020        0.10910
H          0.45830       -1.74530       -2.29270
H          5.60560        0.72410       -2.56510
H          5.32240        1.89320       -1.21660
H          5.31300        2.46190       -2.92830
