18
TSA8_9_Br_H_OMe
C          1.92070        1.94830        0.67130
C          0.85910        2.70790       -0.07360
Br         1.09800        0.39790        1.51740
H          2.66870        1.58240       -0.06700
H          0.93420        2.82570       -1.14950
C          2.62650        2.84430        1.70890
C          3.72040        2.05640        2.39920
C          3.71350        1.85020        3.71970
O         -0.09230        3.19450        0.51850
O          3.18320        3.96040        1.03370
H          1.84420        3.17140        2.43510
H          4.53410        1.65120        1.80480
H          2.91730        2.24210        4.34480
H          4.51360        1.28330        4.18390
C          3.58760        4.95600        1.95210
H          3.73040        5.90540        1.39650
H          4.56120        4.68550        2.41430
H          2.81900        5.16420        2.72960
