18
TSA8_9_Br_H_OMe
C          1.89980        0.25160       -0.02020
C          1.47030        1.42170        0.47120
Br         2.19200       -1.30090        1.06570
H          2.06610        0.15650       -1.08850
H          1.28720        2.24230       -0.21450
C          2.43050        4.20500        2.53580
C          3.02080        2.99530        2.51770
C          2.21970        1.74180        2.74630
O          1.22610        1.61260        1.79200
O          3.10030        5.37370        2.33900
H          1.36120        4.26430        2.71630
H          4.08690        2.89560        2.34290
H          1.74780        1.79810        3.74990
H          2.89310        0.86090        2.73330
C          4.45340        5.50090        2.09880
H          4.70040        6.57580        1.98170
H          4.72840        4.96960        1.16290
H          5.03460        5.09470        2.95400
