22
TSA8_9_CCl3_CHF2_NH2
C          1.73300       -1.93550       -0.31030
C          2.89530       -2.04000        0.67810
C          2.13040       -0.99920       -1.50440
H          0.90180       -1.41750        0.21410
C          3.02090       -1.14470        1.88640
C          1.19640       -3.36920       -0.66130
C         -0.13980       -3.37420       -1.37800
C         -1.25030       -2.87310       -0.82770
O          3.79100       -2.84440        0.47130
N          2.17980       -4.13920       -1.43440
H          1.02660       -3.90830        0.30000
H         -0.21430       -3.81850       -2.36920
H         -1.23880       -2.43140        0.16380
H         -2.18820       -2.91130       -1.37240
Cl         0.82040       -0.80810       -2.70020
Cl         2.47000        0.64830       -0.90100
Cl         3.60290       -1.53110       -2.36730
F          1.99180       -0.22440        1.96590
F          3.03680       -1.90360        3.04090
H          3.97960       -0.58780        1.80750
H          2.21430       -3.78990       -2.42130
H          1.87270       -5.13950       -1.47930
