22
TSA8_9_CCl3_CHF2_NH2
C          2.17320       -0.12980       -0.16750
C          2.18000       -1.23550        0.63790
C          1.74910        0.18440       -1.59590
H          2.59520        0.76170        0.29500
C          2.81930       -1.07190        1.99650
C          0.41740       -5.19470       -1.20190
C          0.88690       -3.94080       -1.27700
C          0.54080       -2.89150       -0.25110
O          1.69430       -2.48710        0.38220
N          0.77760       -6.16240       -2.17280
H         -0.24370       -5.48650       -0.39080
H          1.55180       -3.68390       -2.09350
H         -0.12560       -3.33720        0.51850
H         -0.02450       -2.03940       -0.67050
Cl         1.23890       -1.11660       -2.68400
Cl         0.45600        1.40530       -1.54290
Cl         3.15270        0.92730       -2.40250
F          2.14970       -0.10210        2.72150
F          2.78270       -2.26040        2.70520
H          3.88150       -0.76920        1.87570
H          1.40640       -5.92550       -2.95510
H          0.41400       -7.12300       -2.09690
