22
TSA8_9_CCl3_CHF2_NH2
C          2.16510       -2.22330       -0.69170
C          1.62020       -1.60110        0.64510
C          2.08840       -1.17660       -1.85610
H          3.24600       -2.46480       -0.57430
C          2.72790       -1.22610        1.63280
C          1.45110       -3.59640       -0.89490
C         -0.07540       -3.50740       -0.73420
C         -0.44170       -2.57610        0.43200
O          0.66140       -2.42240        1.30050
N          1.83080       -4.30230       -2.11700
H          1.79810       -4.21970       -0.03800
H         -0.62770       -3.19960       -1.64750
H         -1.30610       -3.00390        0.97920
H         -0.78570       -1.58160        0.06520
Cl         2.87410       -1.76530       -3.34690
Cl         0.42530       -0.67830       -2.26540
Cl         2.97970        0.30850       -1.42130
F          2.17530       -0.57800        2.72170
F          3.37940       -2.36670        2.06810
H          3.46620       -0.54930        1.15990
H          1.33080       -3.88910       -2.93590
H          1.52020       -5.29810       -2.04260
