20
TSA8_9_CCl3_F_CHF2
C          1.77190       -0.04740       -0.01100
C          1.04810       -0.78620        0.84960
C          2.19220       -0.41000       -1.42350
H          2.09060        0.93190        0.33660
F          0.76710       -0.25750        2.07300
C         -0.23990       -5.22200        1.38600
C         -0.52100       -4.08080        0.73950
C         -0.25190       -2.73860        1.35580
O          0.59390       -2.02300        0.53640
C         -0.51340       -6.55960        0.76610
H          0.19350       -5.19380        2.38210
H         -0.96000       -4.11450       -0.25450
H          0.20640       -2.85000        2.36380
H         -1.21380       -2.19300        1.45880
Cl         1.66750       -2.00990       -2.02480
Cl         1.53530        0.82050       -2.52900
Cl         3.96810       -0.35270       -1.51500
F         -1.86160       -6.68440        0.48420
F          0.21710       -6.69840       -0.40020
H         -0.21780       -7.36280        1.47310
