20
TSA8_9_CCl3_F_CHF2
C          1.35000       -2.59060        0.37360
C          1.07910       -1.36040        1.27080
C          1.38450       -2.15670       -1.13430
H          2.38560       -2.93500        0.59040
F          1.46830       -1.56930        2.58710
C          0.36900       -3.71750        0.85340
C         -1.07840       -3.21160        0.91670
C         -1.13130       -1.91450        1.73190
O         -0.27000       -0.92660        1.19100
C          0.43670       -5.06720        0.12310
H          0.66300       -3.93910        1.90530
H         -1.49570       -3.04800       -0.09460
H         -0.89260       -2.10970        2.80140
H         -2.17240       -1.53070        1.71110
Cl         1.99500       -3.44970       -2.20070
Cl        -0.16820       -1.56870       -1.79000
Cl         2.55840       -0.82150       -1.33350
F         -0.07550       -4.98530       -1.15850
F          1.73800       -5.53640        0.08860
H         -0.18330       -5.80530        0.67590
