20
TSA8_9_NO2_NH2_NH2
C          2.59220        1.32740       -1.47180
C          1.47150        0.25120       -1.63480
N          2.48260        1.96820       -0.16940
H          3.59490        0.84300       -1.54060
N          2.04890       -1.07190       -1.84490
C          2.49840        2.33860       -2.63320
C          1.07550        2.91040       -2.77850
C          0.02180        1.82750       -2.48640
O          0.56810        0.54260       -2.69790
N          3.50640        3.39290       -2.53120
H          2.69770        1.75470       -3.56070
H          0.86630        3.79470       -2.13840
H         -0.86000        1.98690       -3.13990
H         -0.36550        1.91010       -1.44480
O          3.38820        1.89670        0.60500
O          1.39240        2.61660        0.18010
H          1.26950       -1.76410       -1.92140
H          2.61080       -1.32900       -1.00210
H          3.31240        3.99510       -1.69810
H          3.46340        3.99300       -3.38680
