17
TSA8_9_H_H_CHF2
C          3.19100       -0.28860       -1.99110
C          1.73910       -0.43090       -1.60610
H          3.79640       -0.19540       -1.06310
H          3.48220       -1.23070       -2.50210
H          1.44780       -1.24700       -0.95320
C          3.48410        0.91060       -2.92350
C          3.19030        2.21670       -2.21600
C          2.27730        3.08120       -2.66890
O          0.88230        0.33400       -2.01990
C          4.95190        0.90480       -3.37980
H          2.85280        0.81040       -3.83600
H          3.73890        2.46160       -1.31080
H          1.70590        2.87590       -3.56870
H          2.09620        4.00720       -2.13300
F          5.80940        1.00220       -2.29660
F          5.23410       -0.25710       -4.07670
H          5.13510        1.76640       -4.05810
