17
TSA8_9_H_H_CHF2
C          3.20600       -0.00610       -1.87080
C          1.65920       -0.01050       -1.75710
H          3.65180        0.54750       -1.01560
H          3.57890       -1.05250       -1.83250
H          1.28760       -0.84350       -2.39170
C          3.57870        0.70180       -3.17670
C          3.05630        2.15550       -3.13140
C          1.85690        2.29810       -2.17490
O          1.01370        1.16870       -2.24580
C          5.08270        0.65350       -3.47980
H          3.04650        0.17420       -3.99960
H          3.81970        2.88650       -2.78800
H          1.28940        3.21520       -2.43540
H          2.20080        2.43360       -1.12350
F          5.80630        1.27220       -2.47550
F          5.50070       -0.66070       -3.59420
H          5.28590        1.17000       -4.44190
