18
TSA8_9_NH2_Br_NH2
C          1.53740        0.12900        2.28760
C          1.10090        0.74360        0.97580
N          1.43440       -1.33150        2.22990
H          2.60790        0.38900        2.44600
Br         2.33370        1.77190       -0.06220
C          0.75600        0.71320        3.49400
C         -0.73860        0.46800        3.40740
C         -1.61570        1.47520        3.34350
O         -0.03480        0.58200        0.55690
N          1.27900        0.16000        4.74540
H          0.95070        1.81030        3.50270
H         -1.11370       -0.55100        3.40090
H         -1.28590        2.51000        3.35040
H         -2.67860        1.26670        3.28420
H          2.06190       -1.69350        1.47540
H          0.45580       -1.62810        2.01310
H          1.07820       -0.86540        4.80090
H          0.80850        0.62830        5.55460
