19
TSA8_9_H_CCl3_NH2
C          3.08860        1.60350        1.63640
C          1.61450        1.23530        1.25480
H          3.73010        0.71040        1.47180
H          3.48910        2.42150        1.00130
C          0.87090        2.34210        0.47860
C          3.14990        1.95910        3.12680
C          2.64580        0.76830        3.97110
C          1.58990       -0.04000        3.19920
O          0.83230        0.82190        2.37830
N          4.49640        2.36570        3.52730
H          2.46290        2.81430        3.29510
H          3.45160        0.05910        4.26090
H          0.93130       -0.57780        3.91270
H          2.07540       -0.82760        2.57500
Cl         0.76420        3.86520        1.40220
Cl         1.68600        2.66340       -1.07550
Cl        -0.78660        1.80290        0.10390
H          5.16200        1.56750        3.40580
H          4.48540        2.64250        4.53560
