20
TSA8_9_Cl_CBr3_CBr3
C          3.24290        1.45690        0.92210
C          1.79400        1.60060        0.49450
Cl         3.76550       -0.21740        0.56230
H          3.84530        2.13060        0.28140
C          1.40130        2.56620       -0.60320
C          3.44200        1.88130        2.41330
C          2.72120        0.92720        3.34890
C          1.70800        1.32360        4.12590
O          0.93680        0.91980        1.03950
C          4.92950        2.05020        2.85310
H          2.99620        2.89770        2.50540
H          3.03430       -0.11160        3.39420
H          1.35960        2.35160        4.11550
H          1.21850        0.61130        4.78200
Br         2.29280        2.09110       -2.25870
Br        -0.51460        2.55330       -0.93780
Br         1.90260        4.37500       -0.11450
Br         5.00220        2.76850        4.65940
Br         5.97220        0.40720        2.86690
Br         5.85730        3.34040        1.73260
