27
TSA8_9_OH_Et_Et
C          3.13220       -1.35010       -0.35970
C          1.83100       -2.18400       -0.25320
O          2.86590       -0.01870        0.00870
H          3.84650       -1.83240        0.34380
C          1.08410       -2.10360        1.08480
C          3.67330       -1.40590       -1.82590
C          3.06260       -2.62110       -2.54250
C          1.51830       -2.45410       -2.53290
O          0.98080       -1.89470       -1.33580
C          5.21410       -1.47300       -1.91960
H          3.31060       -0.51400       -2.38640
H          3.35370       -3.54180       -1.98820
H          1.02460       -3.41850       -2.77570
H          1.27900       -1.73730       -3.34650
H          3.71890        0.39050        0.29590
C          1.92370       -2.62740        2.24930
H          0.17450       -2.73730        1.01060
H          0.76600       -1.05840        1.28620
H          2.23160       -3.67720        2.05710
H          1.32180       -2.59890        3.18180
H          2.82650       -2.00120        2.40430
C          5.93380       -0.26530       -1.32450
H          5.49450       -1.53600       -2.99410
H          5.58260       -2.39220       -1.41290
H          5.58970        0.67050       -1.81300
H          7.02650       -0.37350       -1.49070
H          5.77280       -0.20570       -0.23050
