21
TSA8_9_CH2F_CF3_OH
C          2.69170        1.08400       -0.29500
C          1.32920        1.29220       -0.93110
C          2.54580        0.17580        0.94110
H          3.31460        0.53780       -1.03890
C          1.08460        0.85470       -2.35010
C          3.46580        2.40390        0.01290
C          2.87510        3.27360        1.10570
C          1.76270        3.99820        0.95590
O          0.40900        1.77070       -0.28560
O          4.77480        2.05670        0.39080
H          3.52380        2.99660       -0.93140
H          3.40830        3.35370        2.04930
H          1.21100        4.00940        0.02440
H          1.40850        4.61720        1.77410
F          3.78210       -0.15110        1.46810
H          2.03540       -0.76880        0.65400
H          1.93940        0.67670        1.72570
F         -0.22240        1.11630       -2.72320
F          1.93740        1.53710       -3.19760
F          1.31890       -0.50340       -2.46430
H          5.35720        2.83410        0.18210
