21
TSA8_9_CH2F_CF3_OH
C          1.77380        0.09990       -0.12480
C          1.45780        1.10840       -0.99200
C          2.03730        0.13080        1.35680
H          1.84120       -0.90740       -0.52050
C          1.20280        0.78280       -2.44910
C          4.05790        4.27610        0.10780
C          3.31620        3.18390        0.34580
C          1.80930        3.22680        0.32460
O          1.33540        2.44230       -0.70480
O          5.40850        4.21740        0.10130
H          3.58100        5.22990       -0.09530
H          3.81020        2.23740        0.53970
H          1.46510        4.26620        0.13060
H          1.35270        2.96190        1.29330
F          3.30590       -0.36010        1.59970
H          1.30080       -0.53800        1.84900
H          1.95370        1.10080        1.84530
F         -0.07900        1.17740       -2.78160
F          2.10260        1.48810       -3.22490
F          1.33720       -0.56440       -2.74020
H          5.89340        3.39370        0.25350
