21
TSA8_9_CH2F_CF3_OH
C          2.74160        1.13820       -0.27480
C          1.33390        1.56650       -0.81670
C          2.57300        0.37060        1.04920
H          3.23470        0.43470       -0.98280
C          1.06840        1.05090       -2.23340
C          3.62350        2.39620       -0.14130
C          2.93960        3.45880        0.73650
C          1.41940        3.46490        0.50250
O          1.12330        2.97770       -0.78830
O          4.90230        2.08580        0.34410
H          3.71010        2.81060       -1.17380
H          3.12540        3.32680        1.82450
H          1.03220        4.49700        0.62600
H          0.88900        2.85400        1.26920
F          3.79690       -0.07850        1.51160
H          1.92360       -0.51510        0.88060
H          2.10340        0.99480        1.83490
F         -0.20840        1.41100       -2.62280
F          1.98160        1.59530       -3.11920
F          1.16750       -0.32850       -2.26240
H          5.48910        2.85180        0.11060
