16
TSA8_9_F_NH2_Cl
C          3.03670        0.73330       -1.75480
C          1.60470        0.67660       -2.24210
F          3.11310        0.25410       -0.45690
H          3.58600        0.02870       -2.41660
N          0.92440       -0.49180       -2.18150
C          3.73690        2.11330       -1.83520
C          3.34440        3.08400       -0.73300
C          2.13090        3.62140       -0.57420
O          1.06510        1.65550       -2.73180
Cl         5.49820        1.83160       -1.68750
H          3.57600        2.56970       -2.83550
H          4.10700        3.38630       -0.01970
H          1.30390        3.41330       -1.23090
H          1.95750        4.31300        0.24430
H         -0.04510       -0.55210       -2.52750
H          1.36490       -1.33800       -1.79240
