16
TSA8_9_F_NH2_Cl
C          3.05020        0.70750       -1.28700
C          1.51470        0.74600       -1.56250
F          3.29050        0.87470        0.06720
H          3.47340       -0.27850       -1.57710
N          1.19810       -0.08700       -2.71740
C          3.70510        1.84710       -2.06690
C          3.12880        3.19700       -1.60440
C          1.69270        3.03890       -1.07190
O          0.99330        2.05760       -1.80410
Cl         5.48290        1.83320       -1.91010
H          3.45380        1.70570       -3.14070
H          3.72210        3.66380       -0.78740
H          1.16870        4.01490       -1.13980
H          1.69010        2.76510        0.00750
H          0.16410       -0.05520       -2.86720
H          1.43550       -1.07790       -2.48460
