20
TSA8_9_Me_NH2_CN
C          1.56040       -0.01210       -0.03820
C          1.23590       -0.45190       -1.38860
C          1.68490        1.32420        0.52440
H          1.46140       -0.78880        0.69580
N          1.26710       -1.84910       -1.62650
C          1.34420        2.91530       -4.20390
C          1.36820        2.49800       -2.93640
C          0.35820        1.51740       -2.44690
O          0.95420        0.26950       -2.52910
C          2.51330        3.56080       -4.73850
H          0.50750        2.68350       -4.85890
H          2.21460        2.73730       -2.30780
H         -0.51930        1.51320       -3.11650
H         -0.10090        1.77520       -1.47070
H          1.38430        2.21320       -0.04510
H          2.78280        1.27840        0.55790
H          1.30470        1.44740        1.56220
H          1.52460       -2.08660       -2.60090
H          1.79380       -2.43060       -0.95610
N          3.47060        4.07550       -5.13370
