17
TSA8_9_CF3_Cl_Cl
C          1.77810       -0.03110        0.00350
C          1.02900        0.15880        1.10340
C          2.24030       -1.37050       -0.52000
H          2.08150        0.84120       -0.56910
Cl         0.59010        1.81560        1.53550
C         -0.10390       -2.40780        4.82080
C         -0.42840       -2.13820        3.55130
C         -0.21610       -0.77940        2.95150
O          0.61990       -0.89130        1.86110
Cl        -0.36900       -4.01160        5.48480
H          0.32580       -1.64410        5.46210
H         -0.85910       -2.91930        2.93110
H          0.22970       -0.08350        3.69720
H         -1.19940       -0.37660        2.62670
F          3.62180       -1.38200       -0.56340
F          1.81370       -2.43060        0.25940
F          1.75140       -1.54010       -1.80110
