21
TSA8_9_CN_CF3_Me
C          1.61840       -0.07690       -0.01860
C          1.50670       -1.29090       -0.62680
C          1.80160        1.21290       -0.65050
H          1.56680       -0.03140        1.06870
C          1.45510       -2.51260        0.24220
C          3.69670       -1.49490       -3.83860
C          2.94840       -0.48520       -3.35490
C          1.48990       -0.64290       -3.02790
O          1.34190       -1.51160       -1.96940
C          5.13500       -1.29290       -4.24980
H          3.26280       -2.48030       -3.98600
H          3.39350        0.49040       -3.22640
H          0.95870       -1.02870       -3.93510
H          1.01930        0.32870       -2.79590
N          1.94800        2.26210       -1.11490
F          2.05500       -3.59150       -0.38850
F          2.08170       -2.32190        1.46840
F          0.13340       -2.79650        0.43560
H          5.79940       -1.98210       -3.69010
H          5.48120       -0.24990       -4.08090
H          5.24130       -1.51070       -5.33670
