18
TSA8_9_Br_CN_CBr3
C          2.86300       -1.18070        1.49090
C          1.59710       -0.27510        1.60240
Br         2.90370       -1.76520       -0.36690
H          3.79390       -0.60570        1.68870
C          1.84750        1.16860        1.69340
C          2.71110       -2.34530        2.52060
C          1.34510       -3.01560        2.30210
C          0.22210       -1.96880        2.22790
O          0.69530       -0.69260        2.60940
C          3.83280       -3.40760        2.69160
H          2.67310       -1.84200        3.51300
H          1.32360       -3.65110        1.38930
H         -0.58510       -2.29110        2.91490
H         -0.22220       -1.92750        1.20600
N          2.01540        2.31170        1.76370
Br         3.33790       -4.58870        4.16430
Br         4.14300       -4.54400        1.14740
Br         5.51510       -2.59090        3.20370
