20
TSA8_9_Me_CBr3_I
C          2.59070       -1.74390       -0.00920
C          1.35060       -2.11260        0.79760
C          2.29350       -0.49490       -0.85580
H          3.40110       -1.46500        0.69910
C          1.30850       -1.95800        2.30990
C          3.13740       -2.88690       -0.91660
C          2.15820       -3.33980       -1.97610
C          2.41160       -3.19860       -3.28060
O          0.34260       -2.47450        0.20850
I          3.76100       -4.61900        0.17520
H          4.06150       -2.50250       -1.40420
H          1.22320       -3.80210       -1.67960
H          1.68680       -3.53960       -4.01250
H          3.33400       -2.74530       -3.63010
H          1.48550       -0.69150       -1.59240
H          3.20570       -0.17650       -1.40400
H          1.97500        0.34610       -0.20430
Br         1.62140       -0.10710        2.79420
Br        -0.42410       -2.46150        3.03830
Br         2.64100       -3.04380        3.20070
