20
TSA8_9_Me_CBr3_I
C          2.79490       -1.32960       -0.28840
C          1.35550       -1.62140        0.21840
C          2.72740       -0.10370       -1.21800
H          3.46420       -0.99060        0.52920
C          1.14100       -2.15840        1.65480
C          3.42660       -2.54780       -1.00920
C          2.38140       -3.55990       -1.48840
C          1.06720       -2.86500       -1.83700
O          0.45650       -2.19740       -0.73460
I          4.89140       -3.55340        0.19720
H          4.01620       -2.18710       -1.87970
H          2.14980       -4.29630       -0.69840
H          0.36700       -3.65190       -2.18630
H          1.20440       -2.16890       -2.68730
H          2.09510       -0.26850       -2.10960
H          3.74780        0.16990       -1.56300
H          2.31510        0.76610       -0.66240
Br         2.07050       -1.05290        2.95130
Br        -0.74520       -2.03460        2.08560
Br         1.66710       -3.99900        1.94320
