20
TSA8_9_CCl3_CH2F_F
C          1.19510       -0.64890        1.16030
C          2.57920       -1.15150        1.57330
C          1.13530       -0.12440       -0.31070
H          1.00660        0.25530        1.78480
C          3.29320       -2.31570        0.94090
C          0.04870       -1.62650        1.55850
C          0.08990       -2.98430        0.90340
C         -0.88700       -3.41780        0.10120
O          3.16040       -0.55940        2.47150
F          0.07930       -1.81910        2.92900
H         -0.91900       -1.13190        1.32640
H          0.92200       -3.64770        1.10320
H         -1.74890       -2.79800       -0.12410
H         -0.82350       -4.40740       -0.33990
Cl         1.29960       -1.37990       -1.56860
Cl        -0.41240        0.71660       -0.60970
Cl         2.42590        1.08160       -0.58080
F          4.49640       -1.88470        0.41380
H          2.71710       -2.78890        0.12980
H          3.49310       -3.08660        1.71400
