15
TSA8_9_CN_I_Cl
C          1.66110        0.01330        0.08520
C          1.66330       -0.34770        1.38880
C          1.77240       -0.88960       -1.03820
H          1.52640        1.05430       -0.17260
I          1.38850        1.14900        2.85580
C          1.81340       -4.98840        1.13260
C          1.78640       -3.71710        0.72640
C          0.97930       -2.67180        1.43510
O          1.78620       -1.62640        1.83610
Cl         2.74430       -6.17460        0.23360
H          1.25130       -5.30940        2.00400
H          2.34710       -3.43440       -0.15570
H          0.47570       -3.09100        2.33440
H          0.18250       -2.31500        0.75310
N          1.85780       -1.58230       -1.96220
