22
TSA8_9_NO2_CBr3_CBr3
C          1.72730       -0.10280        0.06330
C          1.75330       -0.79050       -1.11660
N          1.69240        1.31270        0.24150
H          1.76680       -0.69160        0.97770
C          1.91190       -2.30150       -1.05410
C          1.03500        2.91940       -4.00980
C          1.62140        1.83760       -3.47650
C          0.81310        0.77180       -2.79480
O          1.64640       -0.24430       -2.36430
C          1.83450        3.99460       -4.69830
H         -0.04480        3.02370       -3.94260
H          2.70110        1.72390       -3.53390
H          0.10850        0.34710       -3.54070
H          0.19920        1.18270       -1.96620
O          1.58240        1.74600        1.34770
O          2.03130        2.13610       -0.72270
Br         0.44260       -3.10810       -0.07290
Br         1.93480       -3.11170       -2.82330
Br         3.58570       -2.77080       -0.18730
Br         0.65490        5.39870       -5.32440
Br         3.11850        4.78100       -3.47420
Br         2.77620        3.26490       -6.22980
