22
TSA8_9_NO2_CBr3_CBr3
C          1.50870        1.10180       -1.44790
C          2.03410       -0.23620       -2.07950
N          2.39870        1.63110       -0.43080
H          0.54800        0.83190       -0.95280
C          2.29280       -1.39580       -1.07490
C          1.11050        2.16070       -2.54510
C          0.48100        1.44280       -3.76580
C          0.06060        0.01920       -3.42990
O          1.20640       -0.75750       -3.12850
C          2.16890        3.20500       -3.03270
H          0.30390        2.76970       -2.08010
H          1.22160        1.33370       -4.58880
H         -0.41930       -0.41390       -4.33230
H         -0.69400       -0.02620       -2.61540
O          2.01420        1.75430        0.69260
O          3.66340        1.86890       -0.70620
Br         0.67080       -1.89630       -0.12950
Br         2.89980       -2.96110       -2.05220
Br         3.68780       -1.05140        0.23070
Br         1.41580        4.33750       -4.42930
Br         2.66450        4.47490       -1.64120
Br         3.76980        2.37320       -3.76310
