16
TSA8_9_CN_H_OH
C          2.17910       -1.15010        1.27340
C          2.64700        0.09880        1.96360
C          2.85470       -1.31120       -0.02670
H          1.11160       -0.91590        1.04840
H          2.52830        1.04930        1.45190
C          2.27480       -2.44630        2.12710
C          1.16990       -3.38050        1.69430
C         -0.10300       -3.01990        1.91150
O          3.05560        0.08500        3.11360
O          3.54680       -3.04010        1.98240
H          2.10280       -2.23420        3.20760
H          1.39070       -4.32950        1.21730
H         -0.32690       -2.07470        2.40690
H         -0.92670       -3.64870        1.60650
N          3.40330       -1.49840       -1.03020
H          3.52200       -3.92290        2.43970
