22
TSA8_9_CHF2_NH2_Me
C          2.32720        2.00680        0.48880
C          1.39590        1.51520       -0.66850
C          2.20460        1.03950        1.68760
H          3.38960        1.95640        0.15860
N          2.17900        1.12450       -1.83560
C          2.00110        3.49590        0.78300
C          0.49800        3.69520        1.03950
C         -0.33820        2.82010        0.08980
O          0.41960        2.47830       -1.05150
C          2.85440        4.15390        1.87010
H          2.22810        4.03930       -0.16280
H          0.18020        3.49840        2.08640
H         -1.25380        3.37180       -0.20530
H         -0.69930        1.89690        0.59950
F          3.10710        1.36300        2.68300
F          0.92920        1.02580        2.22010
H          2.44680        0.01070        1.34590
H          1.52520        0.85610       -2.60460
H          2.74040        0.27900       -1.58790
H          3.93250        4.04300        1.62640
H          2.65250        3.71380        2.86700
H          2.61900        5.23850        1.92260
