20
TSA8_9_CCl3_OH_NH2
C          1.44910        0.21500       -1.93740
C          0.72340       -0.73700       -0.99410
C          1.55090        1.64740       -1.30840
H          2.50150       -0.13810       -2.01600
O          1.36680       -1.79190       -0.44950
C          0.84950        0.06390       -3.38100
C         -0.64660        0.30710       -3.48070
C         -1.49420       -0.66860       -3.82650
O         -0.45020       -0.55220       -0.71060
N          1.54810        0.89580       -4.36060
H          1.04530       -0.99780       -3.65840
H         -1.05380        1.29030       -3.28210
H         -1.14180       -1.67340       -4.04220
H         -2.55820       -0.46690       -3.89420
Cl        -0.01600        2.48340       -1.13660
Cl         2.26490        1.53550        0.32840
Cl         2.66040        2.70930       -2.22020
H          2.29500       -1.98260       -0.64200
H          1.23260        1.88870       -4.27700
H          1.28650        0.58100       -5.32280
