20
TSA8_9_Br_OMe_NO2
C          2.54720        0.87080        0.83440
C          1.86020        1.21240       -0.46950
Br         1.23200        0.43600        2.22220
H          3.15120       -0.04630        0.66350
O          2.62230        1.47860       -1.56290
C          3.50760        2.01620        1.24950
C          2.75870        3.30980        1.49310
C          2.97140        4.39990        0.74910
O          0.63880        1.25930       -0.53260
N          4.28440        1.66450        2.42690
H          4.22170        2.15990        0.40540
H          2.02350        3.35680        2.29100
H          3.69410        4.39670       -0.06140
H          2.41450        5.30950        0.94810
C          2.14560        1.87700       -2.79720
H          2.45110        1.13540       -3.56340
H          2.58920        2.86100       -3.05440
H          1.03920        1.97530       -2.81700
O          3.75540        1.48670        3.48280
O          5.59470        1.57820        2.34180
