20
TSA8_9_OMe_NO2_I
C          0.55850       -0.64560       -1.36360
C          1.27470       -1.46900       -0.25890
O          1.47740        0.20000       -2.03230
H         -0.28590       -0.08060       -0.89690
N          0.79430       -1.17600        1.08000
C         -0.09000       -1.57950       -2.39220
C         -0.88260       -2.61740       -1.61630
C          0.10590       -3.48250       -0.81550
O          1.35760       -2.86550       -0.51540
I         -1.36170       -0.48690       -3.72390
H          0.68380       -2.09590       -3.00430
H         -1.58410       -2.08600       -0.93540
H          0.34580       -4.34140       -1.47570
H         -0.37720       -3.90170        0.09260
C          1.54340        1.46050       -1.40090
H          2.19260        2.12210       -2.00950
H          2.00680        1.37850       -0.39500
H          0.54650        1.95410       -1.35680
O          0.43890       -2.05430        1.80650
O          0.85150        0.05440        1.53910
