17
TSA8_9_CN_F_NH2
C          2.63930       -1.59160       -0.89060
C          1.55010       -1.51120        0.20830
C          2.27770       -0.59130       -1.91160
H          3.63360       -1.31400       -0.47910
F          2.10980       -1.12800        1.41460
C          2.66480       -3.04170       -1.43620
C          1.26180       -3.39280       -1.94150
C          0.22940       -3.10490       -0.83520
O          0.84440       -2.73090        0.38700
N          3.68610       -3.29810       -2.45180
H          2.90090       -3.70640       -0.57480
H          1.01210       -2.78130       -2.84140
H         -0.32070       -4.05310       -0.67380
H         -0.51780       -2.34170       -1.14960
N          1.99440        0.20720       -2.70070
H          3.45390       -2.82580       -3.35330
H          3.69430       -4.33200       -2.63110
