18
TSA8_9_CN_CF3_Cl
C          1.66460       -0.07640        0.03780
C          1.51530       -1.44630        0.00630
C          1.83490        0.81640       -1.08620
H          1.54930        0.41240        0.97940
C          1.42630       -2.17610        1.31270
C          1.48690       -2.64250       -4.43010
C          1.58330       -1.79560       -3.40280
C          0.63490       -1.84910       -2.25010
O          1.35170       -2.20490       -1.11860
Cl         2.64270       -2.57030       -5.74640
H          0.70930       -3.39860       -4.45760
H          2.38150       -1.06090       -3.37940
H         -0.18800       -2.58510       -2.43720
H          0.11570       -0.87990       -2.11840
N          1.97130        1.53010       -1.98710
F          0.09430       -2.40030        1.54660
F          2.07830       -3.39760        1.23240
F          1.96900       -1.42800        2.35140
