18
TSA8_9_CN_CF3_Cl
C          2.35500       -1.06920       -1.29780
C          1.15440       -1.50950       -0.38640
C          2.23000        0.38520       -1.53440
H          3.32190       -1.22160       -0.77080
C          1.46670       -2.06940        1.01580
C          2.21860       -1.84690       -2.65840
C          0.85350       -1.52450       -3.25710
C         -0.23680       -1.74200       -2.19200
O          0.28230       -2.40260       -1.05670
Cl         3.46500       -1.60320       -3.91490
H          2.22630       -2.94260       -2.46510
H          0.83220       -0.46650       -3.61850
H         -1.00690       -2.38960       -2.64780
H         -0.72300       -0.78540       -1.89000
N          2.09930        1.51880       -1.73400
F          0.26770       -2.38530        1.63360
F          2.23310       -3.21990        0.94220
F          2.12050       -1.13320        1.79370
