21
TSA8_9_CN_CH2F_CCl3
C          2.71480        1.63720        0.49710
C          1.55990        1.84120       -0.48610
C          2.41390        0.33260        1.13890
H          3.65820        1.48670       -0.07010
C          1.76710        1.74760       -1.96530
C          2.80880        2.86520        1.52160
C          2.12100        2.42780        2.78830
C          0.81650        2.56890        2.94990
O          0.42560        2.03480       -0.07440
C          4.13760        3.61350        1.92080
H          2.24420        3.68070        1.02030
H          2.68510        1.83440        3.50610
H          0.23020        3.08770        2.20330
H          0.34890        2.10890        3.80750
N          2.15190       -0.67320        1.64910
F          2.61720        2.75080       -2.38350
H          0.79870        1.84000       -2.51030
H          2.19600        0.75360       -2.20320
Cl         3.69190        5.13330        2.77460
Cl         5.21530        2.72310        3.03580
Cl         5.10840        4.12220        0.51780
