23
TSA8_9_CH2F_CHF2_CHF2
C          2.77110        0.92450       -1.13110
C          1.48630        0.19110       -1.47340
C          2.84570        1.09910        0.40010
H          3.61470        0.26280       -1.42890
C          1.54280       -1.16710       -2.11520
C          2.87910        2.23790       -1.97780
C          1.80710        3.24790       -1.61830
C          0.87480        3.63720       -2.49320
O          0.40160        0.69550       -1.21890
C          4.25760        2.92590       -1.91830
H          2.75560        1.92460       -3.04030
H          1.79490        3.67700       -0.62100
H          0.84750        3.23850       -3.50230
H          0.12640        4.36530       -2.19730
F          4.07820        1.57090        0.80370
H          2.70800        0.10890        0.88590
H          2.04490        1.77190        0.77150
F          0.26810       -1.66240       -2.32940
F          2.20260       -1.08180       -3.32730
H          2.09130       -1.86620       -1.44980
F          4.51710        3.48250       -0.68040
F          5.26110        2.03150       -2.24640
H          4.27720        3.75270       -2.66090
