23
TSA8_9_CH2F_CHF2_CHF2
C          1.85460       -0.01340       -0.11200
C          1.48750       -0.04830       -1.42650
C          1.95820        1.14160        0.84780
H          2.10840       -0.96000        0.35820
C          1.44980       -1.38810       -2.11520
C          3.27280        3.53390       -2.97600
C          2.71210        2.76090       -2.03430
C          1.25540        2.37270       -2.08650
O          1.13200        1.00570       -2.22490
C          4.72740        3.89300       -2.92100
H          2.67750        3.90890       -3.80420
H          3.32810        2.39310       -1.22070
H          0.77760        2.83700       -2.97550
H          0.67340        2.74370       -1.22430
F          3.25240        1.21350        1.32730
H          1.27680        0.94370        1.70150
H          1.69020        2.12460        0.45690
F          0.16880       -1.63020       -2.57500
F          2.31970       -1.37080       -3.19010
H          1.74310       -2.22500       -1.44610
F          4.99990        4.58960       -1.75780
F          5.49770        2.74460       -2.96200
H          4.98630        4.53010       -3.79230
