22
TSA8_9_OMe_CN_CCl3
C          1.61840       -0.01650        0.06930
C          1.46190       -0.49290        1.33290
O          1.65260       -0.79690       -1.04220
H          1.64910        1.05980       -0.06900
C          1.32970        0.45600        2.40390
C          2.47150       -4.77530        0.59330
C          2.20390       -3.48870        0.33630
C          0.95840       -2.84270        0.85290
O          1.30710       -1.80110        1.68000
C          3.70150       -5.46120        0.06730
H          1.77110       -5.34730        1.19420
H          2.89290       -2.88810       -0.25030
H          0.33000       -3.56560        1.42180
H          0.30640       -2.48720        0.02950
C          1.22740       -0.32280       -2.27450
H          1.56600       -1.00090       -3.08240
H          1.61830        0.69750       -2.47830
H          0.11380       -0.28970       -2.31240
N          1.22170        1.20520        3.27800
Cl         3.71620       -7.15480        0.61770
Cl         3.68960       -5.45070       -1.71490
Cl         5.18320       -4.66190        0.65450
