17
TSA8_9_Br_CHF2_F
C          3.10970       -1.45610       -0.31870
C          1.56230       -1.67940       -0.30830
Br         3.52510        0.27330       -1.11400
H          3.51270       -1.40570        0.71640
C          1.07920       -2.22740        1.03630
C          3.77620       -2.59560       -1.09500
C          3.21120       -2.68800       -2.52110
C          1.73860       -2.24580       -2.56280
O          1.10060       -2.55110       -1.34300
F          5.15320       -2.46100       -1.12480
H          3.52820       -3.54280       -0.56990
H          3.77030       -2.06520       -3.25270
H          1.22540       -2.75200       -3.40600
H          1.65130       -1.15400       -2.76810
F         -0.29990       -2.32670        1.02760
F          1.62310       -3.47670        1.27660
H          1.37550       -1.53620        1.85340
