20
TSA8_9_CBr3_CH2F_Br
C          1.49940       -1.00780        1.47430
C          2.64210       -2.04250        1.48640
C          1.37780       -0.12230        0.18210
H          1.74710       -0.27620        2.27510
C          3.52820       -2.40310        0.32090
C          0.13970       -1.66620        1.89210
C         -0.27820       -2.80110        0.99080
C         -1.43410       -2.78240        0.31840
O          2.87600       -2.62510        2.53420
Br         0.17690       -2.33730        3.72050
H         -0.65060       -0.88900        1.91810
H          0.37230       -3.66510        0.89230
H         -2.11500       -1.94010        0.39330
H         -1.70500       -3.61880       -0.31720
Br         0.03840        1.27000        0.42170
Br         3.02910        0.86010       -0.13670
Br         0.88800       -1.06740       -1.45250
F          4.84570       -2.13980        0.64850
H          3.29720       -1.86550       -0.60850
H          3.42200       -3.48780        0.11030
