20
TSA8_9_CBr3_CH2F_Br
C          1.44390       -0.35600       -0.03550
C          1.96780       -1.42660        0.62480
C          2.07150        0.43730       -1.16630
H          0.45570       -0.02750        0.26920
C          3.33240       -2.00610        0.35060
C         -1.13960       -3.79860        3.25370
C         -0.39920       -3.59770        2.16080
C         -0.11550       -2.22470        1.62900
O          1.25420       -2.05450        1.60020
Br        -1.44350       -5.57210        3.90090
H         -1.57720       -2.96520        3.79380
H          0.02580       -4.45200        1.63870
H         -0.57840       -1.43950        2.26750
H         -0.54270       -2.15770        0.60540
Br         0.83850        1.82580       -1.72560
Br         3.70370        1.35190       -0.64540
Br         2.40040       -0.67620       -2.71890
F          4.33540       -1.11840        0.67550
H          3.42190       -2.32990       -0.70380
H          3.47660       -2.90850        0.98220
