20
TSA8_9_CBr3_CH2F_Br
C          0.94560       -0.97820        0.53100
C          1.75440       -2.19840       -0.05890
C          1.62230        0.42950        0.45250
H          0.09290       -0.86730       -0.17450
C          3.24270       -2.31240        0.28740
C          0.26360       -1.36380        1.87800
C         -0.50830       -2.69570        1.73090
C         -0.23230       -3.39610        0.39350
O          1.15640       -3.47860        0.15930
Br         1.43900       -1.46830        3.43220
H         -0.48350       -0.59060        2.14950
H         -0.26270       -3.37870        2.57370
H         -0.74240       -2.88580       -0.45270
H         -0.66370       -4.41880        0.42710
Br         0.33190        1.81760        0.88540
Br         3.15750        0.73350        1.61060
Br         2.19380        0.78090       -1.37190
F          3.43790       -2.59810        1.62240
H          3.79640       -1.39910        0.00180
H          3.67790       -3.14200       -0.30730
