20
TSA8_9_NH2_CN_CHF2
C          2.66160        0.22840        1.65550
C          1.74450        1.31040        1.08580
N          2.45700       -1.04700        0.95630
H          3.69940        0.58320        1.46660
C          2.10030        1.95950       -0.14710
C          2.49990        0.09170        3.20340
C          1.24370       -0.68020        3.55430
C          0.14720       -0.10000        4.04140
O          0.85890        1.80230        1.76720
C          3.71330       -0.55040        3.90480
H          2.45340        1.12930        3.60490
H          1.22600       -1.75290        3.37760
H          0.10210        0.97080        4.20350
H         -0.72770       -0.70680        4.25060
H          1.45530       -1.34370        1.04760
H          2.62780       -0.91910       -0.06750
N          2.36150        2.48980       -1.14610
F          3.86760       -1.87720        3.54740
F          4.87380        0.14070        3.59760
H          3.56830       -0.49150        5.00640
