20
TSA8_9_Br_Et_I
C          2.59910        0.46340        1.36300
C          1.27910        1.14490        0.88080
Br         2.49250       -1.44670        0.99190
H          3.47390        0.83420        0.78670
C          1.50830        2.34280       -0.05410
C          2.78960        0.74260        2.86110
C          1.56550        0.27720        3.66490
C          0.27300        0.44560        2.84780
O          0.40370        1.52120        1.94400
I          4.60570       -0.05990        3.66920
H          2.85850        1.84520        2.97890
H          1.62650       -0.78470        3.98690
H         -0.58020        0.61740        3.53560
H          0.02910       -0.48880        2.29030
C          2.19460        3.52330        0.63390
H          0.52140        2.68050       -0.43660
H          2.11820        2.01780       -0.92420
H          1.58630        3.88030        1.49160
H          2.30670        4.35680       -0.09080
H          3.20490        3.23940        0.99380
