23
TSA8_9_Et_H_CHF2
C          1.73220       -0.20260        0.12670
C          1.25910       -1.43250        0.44550
C          1.96490        0.44170       -1.21860
H          1.96810        0.43910        0.97290
H          1.16660       -1.63360        1.50820
C          2.84740       -4.01430       -2.64880
C          2.41590       -2.86300       -2.11110
C          0.97140       -2.65780       -1.72950
O          0.85530       -2.45220       -0.37030
C          4.28850       -4.21320       -3.01180
H          2.15260       -4.83060       -2.82720
H          3.12710       -2.06440       -1.93860
H          0.39200       -3.57350       -1.97430
H          0.48280       -1.84520       -2.29840
C          3.41730        0.89160       -1.34520
H          1.31270        1.33860       -1.28710
H          1.73020       -0.19370       -2.07770
H          3.67400        1.60460       -0.53250
H          3.56560        1.40190       -2.32050
H          4.10280        0.02030       -1.29040
F          4.67300       -3.27710       -3.95450
F          5.08080       -4.08610       -1.88540
H          4.42740       -5.22980       -3.43600
