17
TSA8_9_NO2_Cl_CN
C          2.31700       -1.87380       -0.79990
C          1.24920       -1.54680        0.28340
N          2.38810       -0.78980       -1.77100
H          3.31260       -1.97360       -0.30920
Cl         1.98190       -0.96620        1.80430
C          1.95970       -3.24450       -1.44090
C          0.46560       -3.32620       -1.78290
C         -0.39200       -2.84600       -0.59680
O          0.40060       -2.64490        0.55690
C          2.76570       -3.64740       -2.59950
H          2.13440       -4.00750       -0.65180
H          0.17650       -2.77040       -2.70080
H         -1.15870       -3.62010       -0.39090
H         -0.94680       -1.91270       -0.85290
O          3.34060       -0.06980       -1.78750
O          1.48570       -0.67450       -2.72190
N          3.37740       -4.00810       -3.51310
