20
TSA8_9_CHF2_CH2F_Br
C          2.47310        1.00180        1.10040
C          1.51790        1.51500        0.03820
C          2.30800       -0.52970        1.24010
H          3.50020        1.18970        0.71500
C          2.06200        2.18590       -1.19170
C          2.38450        1.78510        2.45080
C          1.13110        1.57140        3.27300
C         -0.06050        2.08040        2.94730
O          0.31270        1.35080        0.14870
Br         3.92020        1.35610        3.57420
H          2.49850        2.87350        2.25310
H          1.20300        1.01320        4.20210
H         -0.19780        2.69120        2.06480
H         -0.91500        1.90580        3.59310
F          3.26420       -1.07080        2.07740
F          1.05130       -0.85720        1.71930
H          2.43400       -1.00240        0.24210
F          1.03740        2.55980       -2.04430
H          2.73790        1.48670       -1.72720
H          2.63380        3.09070       -0.89770
