20
TSA8_9_Cl_CF3_CF3
C          2.00770       -0.59420       -2.19440
C          0.76590       -1.45300       -2.24380
Cl         1.70100        0.73120       -1.02910
H          2.85880       -1.19260       -1.80020
C          0.80800       -2.89020       -1.79990
C          2.39170       -0.01790       -3.58570
C          3.60660        0.87640       -3.44500
C          3.56790        2.17740       -3.75130
O         -0.28750       -0.97020       -2.63480
C          2.70710       -1.11520       -4.62640
H          1.53280        0.57890       -3.96880
H          4.53880        0.45050       -3.08410
H          2.65700        2.64320       -4.11470
H          4.45770        2.78780       -3.63780
F         -0.44060       -3.47390       -1.92630
F          1.71190       -3.59480       -2.57290
F          1.19880       -2.95230       -0.47520
F          3.74930       -1.91560       -4.18990
F          1.59860       -1.90790       -4.86070
F          3.06950       -0.52810       -5.82670
