20
TSA8_9_Me_I_CH2F
C          1.41480       -0.32730        2.30280
C          1.15010        0.76610        1.29240
C          1.35710       -1.69760        1.60500
H          2.45420       -0.18910        2.67350
I          2.64110        2.19810        0.86380
C          0.46340       -0.19420        3.53170
C         -0.99510       -0.36870        3.15900
C         -1.88800        0.61310        3.32030
O          0.08220        0.83250        0.70310
C          0.82330       -1.18680        4.64850
H          0.62400        0.82610        3.95050
H         -1.33240       -1.31770        2.75360
H         -1.59720        1.57790        3.72400
H         -2.92520        0.45280        3.04490
H          1.63590       -2.51310        2.30210
H          2.08420       -1.72030        0.76490
H          0.34660       -1.90120        1.19400
F          0.03780       -0.95080        5.76350
H          1.88780       -1.06110        4.93970
H          0.66300       -2.23610        4.32510
