20
TSA8_9_Me_I_CH2F
C          1.86910        0.02800        0.05680
C          1.17160        0.66390        1.01010
C          2.15560       -1.44630        0.08250
H          2.24200        0.59630       -0.78970
I          0.85090        2.75600        0.77430
C         -0.16440       -0.29530        5.37870
C         -0.44330       -0.50290        4.08280
C         -0.14020        0.52850        3.03480
O          0.69050       -0.01830        2.08310
C         -0.47170       -1.33160        6.41620
H          0.29170        0.63800        5.69820
H         -0.90540       -1.43590        3.77160
H          0.34110        1.42230        3.49090
H         -1.09520        0.83880        2.55700
H          1.73180       -1.94910        0.97670
H          3.25350       -1.60590        0.07380
H          1.71650       -1.91500       -0.82320
F         -1.82870       -1.60050        6.43000
H         -0.16850       -0.95800        7.41670
H          0.08800       -2.26470        6.19700
