20
TSA8_9_Me_I_CH2F
C          1.33130       -0.29620        2.53520
C          0.97290        0.89670        1.62830
C          1.28610       -1.58880        1.69980
H          2.37900       -0.18170        2.88820
I          1.61280        2.82340        2.35280
C          0.37130       -0.29100        3.75440
C         -1.08310       -0.24110        3.26990
C         -1.25580        0.95460        2.32520
O         -0.38400        0.87020        1.20820
C          0.59470       -1.46500        4.71600
H          0.56350        0.64270        4.33020
H         -1.36030       -1.17870        2.74320
H         -1.11770        1.91200        2.87120
H         -2.30270        0.95690        1.95680
H          1.60280       -2.46180        2.30600
H          1.99700       -1.50530        0.85000
H          0.27680       -1.78240        1.28330
F         -0.23500       -1.33790        5.81650
H          1.64820       -1.46960        5.06720
H          0.37450       -2.43530        4.22490
