20
TSA8_9_CHF2_Me_Br
C          2.45110        1.44340        0.61890
C          1.50340        1.42660       -0.56640
C          2.25200        0.15450        1.45080
H          3.48090        1.40920        0.19790
C          2.05040        1.44450       -1.96310
C          2.38390        2.76510        1.45130
C          1.12230        2.99030        2.25750
C         -0.05010        3.32540        1.71160
O          0.29530        1.35480       -0.40310
Br         3.90390        2.86950        2.66920
H          2.53030        3.63440        0.77310
H          1.17310        2.92270        3.34050
H         -0.16300        3.46300        0.64390
H         -0.91260        3.49360        2.34840
F          3.20100        0.04060        2.44850
F          0.99130        0.11520        2.02100
H          2.36130       -0.72920        0.78600
H          2.63760        2.37330       -2.12070
H          1.22810        1.40980       -2.70940
H          2.70930        0.56420       -2.11690
