20
TSA8_9_CHF2_Me_Br
C          2.55450        1.61290        0.61660
C          1.37720        1.71780       -0.40100
C          2.36790        0.32440        1.44360
H          3.52630        1.52570        0.08060
C          1.77810        1.35790       -1.82720
C          2.61420        2.92250        1.44330
C          1.23930        3.32420        1.99010
C          0.14400        3.09220        0.93110
O          0.71680        2.97280       -0.35790
Br         3.98030        2.97720        2.82410
H          2.89250        3.72390        0.72290
H          0.95730        2.81360        2.93550
H         -0.57540        3.93600        0.95690
H         -0.45360        2.18130        1.17570
F          3.42940        0.12480        2.30580
F          1.19130        0.35320        2.17020
H          2.33010       -0.54680        0.75510
H          2.51980        2.09050       -2.21080
H          0.88170        1.37380       -2.48160
H          2.22010        0.34000       -1.85270
