17
TSA8_9_F_CF3_I
C          2.09960        0.10610       -0.32900
C          1.55010        0.88960       -1.28680
F          2.61710        0.60090        0.82380
H          2.13460       -0.97140       -0.44850
C          0.97270        0.27960       -2.54150
C          4.25210        4.19670       -1.06140
C          3.61290        3.09980       -0.64170
C          2.13680        3.10750       -0.33690
O          1.47170        2.25140       -1.19650
I          6.31460        4.13020       -1.50260
H          3.72560        5.13690       -1.19330
H          4.17150        2.17660       -0.52810
H          1.72310        4.12760       -0.49070
H          1.94160        2.84410        0.72180
F         -0.36190        0.62570       -2.64470
F          1.64990        0.78400       -3.63590
F          1.07470       -1.10160       -2.55790
