20
TSA8_9_CF3_F_Me
C          1.94420        0.25910       -0.01300
C          1.46680        1.28810       -0.76480
C          1.83280       -0.13660        1.44430
H          2.53550       -0.46200       -0.57300
F          1.78870        1.23780       -2.08470
C          1.64690        4.74570        1.84090
C          1.52910        3.44320        1.54220
C          0.32600        2.90710        0.80450
O          0.70090        2.36200       -0.40370
C          2.84830        5.26750        2.56690
H          0.86770        5.44790        1.55810
H          2.32170        2.76090        1.83220
H         -0.37200        3.74260        0.58350
H         -0.27510        2.19370        1.39290
F          3.10650       -0.19670        1.97780
F          1.07890        0.68530        2.23720
F          1.27550       -1.39980        1.50450
H          3.76580        5.06580        1.97470
H          2.93430        4.77760        3.55980
H          2.74990        6.36340        2.71420
