20
TSA8_9_CF3_F_Me
C          2.31260        1.94640        0.54410
C          1.17560        1.61150       -0.46650
C          2.38920        0.82680        1.60750
H          3.28750        1.94240        0.00580
F          1.69160        1.29500       -1.71050
C          2.08570        3.38450        1.08800
C          0.64810        3.57290        1.60260
C         -0.35880        2.85260        0.68820
O          0.20350        2.64040       -0.58990
C          3.11750        3.87110        2.10950
H          2.18110        4.05150        0.20080
H          0.48600        3.24490        2.65210
H         -1.28390        3.45890        0.60950
H         -0.67780        1.88020        1.13500
F          3.46880        1.02200        2.44820
F          1.23490        0.76830        2.36570
F          2.56290       -0.39350        0.97780
H          4.14260        3.77200        1.69320
H          3.04560        3.30090        3.05760
H          2.93640        4.94200        2.34370
