23
TSA8_9_OMe_CCl3_NO2
C          0.99440        2.03120       -0.20630
C          1.43590        1.48900       -1.61500
O          2.03760        1.79360        0.72920
H          0.01030        1.59230        0.08940
C          1.46230       -0.04330       -1.82210
C          0.77810        3.55740       -0.37580
C         -0.31720        3.81750       -1.43150
C         -0.41890        2.66750       -2.43980
O          0.86150        2.16250       -2.73980
N          0.44290        4.27390        0.84500
H          1.73900        3.96380       -0.76360
H         -1.32770        3.93510       -0.98090
H         -0.91370        3.03110       -3.36370
H         -1.06690        1.85440       -2.04410
C          1.62070        0.96050        1.79520
H          1.15130        1.55440        2.60360
H          2.51980        0.47060        2.22200
H          0.94700        0.13550        1.47290
Cl         2.09530       -0.40580       -3.44970
Cl         2.54640       -0.86230       -0.67120
Cl        -0.16690       -0.75470       -1.68660
O          0.25100        3.69820        1.87330
O          0.31710        5.58300        0.81160
