23
TSA8_9_CH2F_Et_Cl
C          2.75910       -0.64110       -1.07310
C          1.31590       -1.19960       -0.97990
C          2.67640        0.89160       -0.94100
H          3.35640       -0.95380       -0.18790
C          1.09340       -2.53420       -0.24580
C          3.47470       -1.05860       -2.38830
C          2.49800       -1.55920       -3.45490
C          1.16640       -0.81680       -3.35500
O          0.47920       -1.03600       -2.12600
Cl         4.73130       -2.29820       -2.10880
H          4.02400       -0.18380       -2.79780
H          2.28230       -2.63620       -3.32770
H          0.52050       -1.19220       -4.17590
H          1.30770        0.26840       -3.53180
F          3.94650        1.44130       -0.91630
H          2.17230        1.15590        0.01400
H          2.10370        1.35670       -1.76740
C          1.54080       -3.78110       -0.99680
H          0.00620       -2.63030       -0.03840
H          1.61850       -2.49280        0.73240
H          0.98510       -3.88010       -1.95110
H          1.32230       -4.67600       -0.37700
H          2.62990       -3.75670       -1.18170
