23
TSA8_9_Me_Et_H
C          2.01350       -1.90670        0.04840
C          0.74700       -1.97210        0.87430
C          1.81840       -0.89760       -1.09120
H          2.83780       -1.53380        0.69700
C          0.78740       -1.57300        2.33070
C          2.37910       -3.33680       -0.42290
C          3.71890       -3.46320       -1.10700
C          3.96520       -3.00220       -2.33680
O         -0.29580       -2.35400        0.35930
H          2.44010       -3.96500        0.49360
H          1.58500       -3.76670       -1.07210
H          4.51400       -3.98940       -0.58640
H          3.19980       -2.50620       -2.92290
H          4.94660       -3.14190       -2.77800
H          1.03160       -1.24270       -1.79620
H          2.76350       -0.72690       -1.64130
H          1.51620        0.08690       -0.67330
C         -0.56380       -1.71170        3.03180
H          1.12180       -0.51590        2.40320
H          1.52570       -2.21660        2.85530
H         -1.31970       -1.05940        2.54530
H         -0.46260       -1.40750        4.09490
H         -0.90890       -2.76710        2.99610
