17
TSA8_9_H_CHF2_F
C          1.85830        1.90290        0.69220
C          0.81960        2.54710       -0.18800
H          1.39130        1.03170        1.19890
H          2.70360        1.53220        0.07120
C          1.03200        2.64240       -1.67210
C          2.39910        2.89850        1.73060
C          3.43440        2.26200        2.62130
C          3.14380        1.23770        3.43010
O         -0.20710        2.98450        0.31090
F          2.97590        3.97290        1.07370
H          1.56800        3.27770        2.36470
H          4.44750        2.65390        2.61690
H          2.14190        0.82260        3.47400
H          3.91550        0.80980        4.06170
F         -0.05050        3.25150       -2.28320
F          2.17110        3.38140       -1.93260
H          1.15390        1.62290       -2.09370
