17
TSA8_9_H_CHF2_F
C          1.89440        0.27870       -0.06280
C          1.54000        1.57470        0.04710
H          2.27380       -0.30530        0.76370
H          1.79730       -0.24180       -1.01080
C          0.99990        2.30290       -1.15240
C          2.84170        4.29120        2.94890
C          3.23610        3.02830        2.76070
C          2.25740        1.95040        2.39820
O          1.63150        2.28590        1.20850
F          3.74960        5.24720        3.27560
H          1.79660        4.56790        2.84310
H          4.28650        2.77540        2.87330
H          1.49410        1.86710        3.19990
H          2.80920        0.99410        2.34130
F         -0.27190        2.76710       -0.87410
F          1.81980        3.37810       -1.43950
H          0.94890        1.64960       -2.05020
