21
TSA8_9_CHF2_OH_CCl3
C          2.19000        2.13310       -0.44380
C          0.89550        2.12880       -1.23180
C          2.07320        1.04340        0.65080
H          3.01640        1.82110       -1.11850
O          0.88600        1.80630       -2.54330
C          2.52310        3.55870        0.13390
C          3.77830        3.48250        0.98610
C          3.76660        3.76710        2.29300
O         -0.15840        2.41360       -0.68300
C          2.73260        4.67010       -0.95110
H          1.67150        3.87760        0.77670
H          4.71640        3.18680        0.52510
H          2.85190        4.06580        2.79590
H          4.68270        3.70070        2.87040
F          3.27900        0.83640        1.29580
F          1.10940        1.37920        1.58650
H          1.79100        0.07680        0.17960
H          1.69550        1.57520       -3.01940
Cl         3.16880        6.22130       -0.17300
Cl         4.04090        4.24880       -2.09560
Cl         1.26240        5.02350       -1.90100
