21
TSA8_9_CHF2_OH_CCl3
C          2.16010        2.21030       -0.67820
C          0.92420        1.87060        0.18050
C          3.22290        1.10860       -0.46690
H          1.85620        2.13220       -1.74520
O         -0.22110        2.56040       -0.23820
C          2.56690        3.69130       -0.36790
C          2.70150        3.89550        1.15190
C          1.42780        3.41230        1.85460
O          1.16110        2.04820        1.56920
C          3.78250        4.28490       -1.13540
H          1.69300        4.30250       -0.69070
H          3.57950        3.35360        1.55670
H          0.55930        4.05380        1.58580
H          1.57000        3.52470        2.94950
F          4.25240        1.22300       -1.37910
F          3.72990        1.09650        0.81830
H          2.75000        0.12080       -0.65640
H         -0.82100        1.85650       -0.59220
Cl         3.84020        6.05020       -0.86700
Cl         5.36590        3.64590       -0.60370
Cl         3.61300        4.03170       -2.89410
