23
TSA8_9_CF3_CF3_Me
C          2.04750       -1.40210       -1.56420
C          0.82340       -2.19190       -1.13080
C          1.83770        0.08840       -1.19890
H          2.92690       -1.76580       -0.98590
C          0.93440       -3.25590       -0.07210
C          2.33060       -1.61900       -3.08480
C          3.56650       -0.86680       -3.52620
C          3.52070        0.07930       -4.46970
O         -0.26320       -1.96040       -1.64270
C          2.54460       -3.10470       -3.41580
H          1.44740       -1.26700       -3.66500
H          4.52130       -1.10260       -3.06400
H          2.58690        0.34450       -4.95590
H          4.42780        0.59820       -4.76130
F          2.97780        0.82790       -1.45460
F          0.78530        0.62660       -1.91990
F          1.55640        0.20250        0.15200
F         -0.29890       -3.83960        0.16100
F          1.82150       -4.23370       -0.48190
F          1.39190       -2.69240        1.10450
H          1.64300       -3.70230       -3.16790
H          3.41140       -3.51180       -2.85130
H          2.73730       -3.22860       -4.50340
