21
TSA8_9_NH2_CCl3_NO2
C          2.97080        1.39130        0.50380
C          1.56870        1.62510       -0.04080
N          3.18150       -0.03360        0.78120
H          3.69790        1.69780       -0.28110
C          1.36270        2.18380       -1.43290
C          3.26540        2.27320        1.75660
C          2.37360        1.91270        2.92710
C          1.50310        2.78050        3.45140
O          0.60020        1.35030        0.65380
N          4.65500        2.18400        2.18530
H          3.08050        3.32990        1.45540
H          2.44640        0.92170        3.36410
H          1.39690        3.78360        3.05110
H          0.88560        2.48440        4.29330
H          2.46020       -0.39470        1.44680
H          3.09440       -0.57400       -0.11010
Cl         2.08740        1.08970       -2.63940
Cl        -0.37040        2.36860       -1.82670
Cl         2.13120        3.78660       -1.56710
O          5.43390        1.46710        1.63140
O          5.07360        2.93470        3.18240
