21
TSA8_9_NH2_CCl3_NO2
C          1.86520        0.16510       -0.20660
C          1.53640        1.49280       -0.27350
N          2.05960       -0.61240        0.96610
H          1.98790       -0.39040       -1.12600
C          1.34420        2.17980       -1.62280
C          3.89280        3.26460        2.81940
C          3.21140        2.25760        2.24260
C          1.70910        2.29230        2.11850
O          1.35060        2.34090        0.78700
N          5.31390        3.26420        2.91830
H          3.35060        4.11740        3.21770
H          3.74630        1.40650        1.83440
H          1.31460        3.21490        2.59520
H          1.20480        1.46900        2.65320
H          1.97500       -0.26980        1.92150
H          2.29370       -1.61000        0.85770
Cl         1.55280        1.16090       -3.08250
Cl        -0.29340        2.87710       -1.69640
Cl         2.51970        3.51420       -1.74450
O          5.96270        2.36130        2.48060
O          5.92240        4.28720        3.47510
