20
TSA8_9_F_OMe_NO2
C          2.96660        1.15330        0.32760
C          1.66110        1.50690       -0.36830
F          2.70180        0.23530        1.33150
H          3.67880        0.67130       -0.36340
O          1.43620        1.36970       -1.70480
C          3.66880        2.40580        0.90210
C          2.81810        3.10980        1.93800
C          2.39530        4.36670        1.76840
O          0.74020        1.92490        0.31710
N          4.94490        2.04430        1.49300
H          3.86090        3.09450        0.04650
H          2.53970        2.57900        2.84390
H          2.64880        4.93010        0.87550
H          1.78400        4.84100        2.52910
C          2.33030        1.08110       -2.71880
H          2.29720        1.90250       -3.46410
H          2.02170        0.14080       -3.21920
H          3.37810        0.98780       -2.38830
O          4.99460        1.30480        2.42990
O          6.05920        2.54110        1.00090
