20
TSA8_9_F_OMe_NO2
C          1.49070       -0.08420       -0.40920
C          1.83420        1.21410       -0.39870
F          1.18270       -0.71860        0.75390
H          1.45600       -0.65940       -1.32700
O          2.16230        1.89060       -1.53840
C          4.67030        3.51190        1.69400
C          3.42890        3.09670        2.00000
C          2.30690        3.14660        1.00480
O          1.85580        1.85710        0.79760
N          5.74230        3.44670        2.62860
H          4.87330        3.90120        0.69970
H          3.21230        2.69550        2.98590
H          2.64060        3.62490        0.05750
H          1.48140        3.76180        1.41980
C          2.22090        1.36550       -2.81310
H          2.50730        2.16880       -3.52280
H          1.22820        0.96670       -3.11230
H          2.98640        0.56230       -2.85930
O          5.57430        3.02190        3.73250
O          6.94180        3.84260        2.26430
