20
TSA8_9_F_OMe_NO2
C          3.36180        1.10220        0.49130
C          2.14260        1.54470       -0.33100
F          2.92220        0.28510        1.52020
H          4.06030        0.51840       -0.14550
O          2.51150        2.21790       -1.51070
C          4.06340        2.34970        1.05420
C          3.04260        3.18890        1.83110
C          1.85250        3.50280        0.91340
O          1.23170        2.31570        0.44060
N          5.19110        1.99210        1.89380
H          4.43210        2.96070        0.19840
H          2.67700        2.62910        2.72040
H          2.16310        4.15410        0.06630
H          1.10750        4.08100        1.49850
C          2.19050        1.37450       -2.58670
H          2.42720        1.90710       -3.53070
H          1.10240        1.13790       -2.61000
H          2.80920        0.44880       -2.56710
O          5.03340        1.34620        2.88620
O          6.40260        2.38750        1.56640
