21
TSA8_9_CBr3_CCl3_CN
C          1.57110       -0.07360       -0.05390
C          1.26970       -1.09010       -0.95080
C          1.73740        1.45660        0.03450
H          1.66520       -0.43600        0.95490
C          1.41790       -2.55480       -0.50390
C          0.75970        0.05830       -5.21400
C          1.05160        0.41890       -3.97080
C          0.14550        0.06630       -2.85940
O          0.78850       -0.96720       -2.21930
C          1.79870        0.11550       -6.19980
H         -0.20100       -0.37860       -5.45740
H          2.02910        0.82450       -3.72540
H         -0.86010       -0.27470       -3.21660
H         -0.05190        0.90490       -2.21050
Br         0.67900        2.31010        1.43890
Br         3.54760        1.61270        0.68810
Br         1.64990        2.63240       -1.49980
Cl         2.25440       -3.60770       -1.69950
Cl         2.34290       -2.79210        1.01730
Cl        -0.21910       -3.18300       -0.31750
N          2.65590        0.17330       -6.97180
