19
TSA8_9_NO2_CH2F_H
C          2.70320        0.93940       -1.05820
C          1.42500        0.61450       -1.80350
N          2.43350        1.09950        0.36190
H          3.40280        0.07940       -1.18070
C          1.28570       -0.69100       -2.53110
C          3.44340        2.14920       -1.68740
C          2.68410        3.45240       -1.77010
C          2.42840        4.22490       -0.71160
O          0.50160        1.41620       -1.81580
H          3.67680        1.85340       -2.73390
H          4.41440        2.31980       -1.17370
H          2.36540        3.79860       -2.74930
H          1.89330        5.15980       -0.84430
H          2.76260        3.95430        0.28250
O          2.95830        0.37120        1.14920
O          1.51700        1.94350        0.78480
F          0.04630       -0.78380       -3.14030
H          1.39870       -1.53000       -1.81340
H          2.07510       -0.76600       -3.30800
