23
TSA8_9_CH2F_CBr3_CCl3
C          2.18950       -2.18130        0.35360
C          0.93640       -2.27180        1.21270
C          1.92370       -1.06540       -0.68890
H          3.03580       -1.84520        0.99120
C          0.91400       -1.79570        2.65940
C          2.56290       -3.54350       -0.35140
C          3.79400       -3.33700       -1.22040
C          3.76580       -3.49550       -2.54820
O         -0.09870       -2.67250        0.69730
C          2.83890       -4.76400        0.58680
H          1.70430       -3.82910       -1.00120
H          4.73060       -3.04970       -0.75140
H          2.85340       -3.78090       -3.06200
H          4.66780       -3.33720       -3.13060
F          3.05660       -0.75370       -1.41790
H          1.60900       -0.13200       -0.17700
H          1.11090       -1.36470       -1.38560
Br         1.35130        0.09090        2.74600
Br        -0.84460       -2.01650        3.46050
Br         2.17360       -2.74020        3.78450
Cl         3.25570       -6.20460       -0.39060
Cl         4.20740       -4.46510        1.69670
Cl         1.41310       -5.25790        1.54000
