23
TSA8_9_CHF2_CBr3_CF3
C          1.71210       -0.12310        0.01370
C          1.48100       -1.45330       -0.17760
C          1.81710        0.97220       -1.02190
H          1.80940        0.25810        1.02060
C          1.29250       -2.40890        0.99440
C          2.17590       -4.32520       -3.06120
C          2.92880       -3.27700       -2.69880
C          2.32650       -1.93030       -2.42910
O          1.40090       -2.03970       -1.40500
C          2.79140       -5.66950       -3.31440
H          1.10070       -4.20760       -3.16920
H          4.00390       -3.39670       -2.58800
H          1.82420       -1.56590       -3.35010
H          3.15270       -1.23900       -2.15490
F          3.09630        1.49440       -1.01860
F          1.46970        0.58860       -2.29840
H          1.10490        1.77430       -0.73550
Br         1.37890       -1.64330        2.78690
Br        -0.44300       -3.25520        0.82710
Br         2.64730       -3.79190        0.90460
F          3.42820       -6.11680       -2.17010
F          1.80630       -6.57430       -3.66430
F          3.70960       -5.58050       -4.34500
