21
TSA8_9_NH2_NO2_CHF2
C          1.77320       -0.17450       -0.11650
C          1.43940       -1.18920       -0.94540
N          1.91200        1.16550       -0.56540
H          1.91790       -0.36650        0.94170
N          1.24320       -2.50730       -0.43150
C          2.54270       -3.08670       -3.93260
C          3.09900       -1.99040       -3.39730
C          2.29350       -0.74210       -3.16560
O          1.25660       -0.96940       -2.27590
C          3.34660       -4.32620       -4.18780
H          1.48910       -3.08440       -4.19900
H          4.15490       -1.98750       -3.14000
H          1.86920       -0.41270       -4.13730
H          2.96290        0.06040       -2.79310
H          2.16170        1.90140        0.11010
H          1.71400        1.44180       -1.53670
O          0.92460       -3.39020       -1.16830
O          1.38930       -2.76350        0.85180
F          4.38280       -4.04550       -5.06010
F          3.86210       -4.80960       -2.99920
H          2.69640       -5.10320       -4.64170
