21
TSA8_9_NH2_NO2_CHF2
C          2.47580       -1.82380       -1.34970
C          1.08100       -1.10750       -1.30200
N          3.55810       -0.87360       -1.07200
H          2.52580       -2.60770       -0.56110
N          0.17470       -1.81820       -0.41890
C          2.64460       -2.50200       -2.72620
C          2.46640       -1.47640       -3.86350
C          1.41260       -0.41790       -3.49620
O          0.47740       -0.95540       -2.58960
C          3.94740       -3.30170       -2.88010
H          1.80200       -3.22490       -2.81480
H          3.39960       -0.94550       -4.15130
H          0.90230       -0.07440       -4.41930
H          1.87850        0.49490       -3.06090
H          3.41740       -0.45930       -0.12220
H          3.58530       -0.09590       -1.76620
O         -0.86110       -2.25160       -0.82620
O          0.47480       -1.95400        0.85470
F          5.05360       -2.47410       -2.79910
F          4.03200       -4.26970       -1.89510
H          3.95570       -3.80750       -3.86910
