23
TSA8_9_CCl3_CBr3_CHF2
C          1.59070       -0.06060       -0.03090
C          1.46700       -1.41880       -0.01450
C          1.79240        0.83340       -1.24320
H          1.48610        0.47620        0.90160
C          1.17560       -2.18580        1.27080
C          2.86170       -4.41790       -3.31220
C          2.90820       -3.79270       -2.12720
C          2.60390       -2.33020       -1.98170
O          1.51540       -2.17030       -1.15100
C          3.18710       -5.87680       -3.43120
H          2.58740       -3.87100       -4.20930
H          3.18210       -4.35310       -1.23690
H          2.37080       -1.87710       -2.96850
H          3.50930       -1.85570       -1.55280
Cl         0.56760        0.50350       -2.49600
Cl         1.59550        2.53530       -0.74660
Cl         3.42780        0.71550       -1.93660
Br         1.03000       -1.14120        2.91260
Br        -0.50160       -3.13530        1.05860
Br         2.57520       -3.48940        1.56850
F          4.48990       -6.10270       -3.02650
F          2.32490       -6.62090       -2.64630
H          3.07920       -6.19720       -4.48860
