23
TSA8_9_CCl3_CBr3_CHF2
C          2.07380       -1.79890       -1.51980
C          1.91950       -2.65510       -0.19140
C          0.83010       -1.09350       -2.17870
H          2.72840       -0.94680       -1.23390
C          1.07700       -2.13460        1.01030
C          2.91630       -2.66410       -2.54200
C          4.05310       -3.44000       -1.84340
C          4.32020       -2.87000       -0.46570
O          3.18540       -3.05000        0.36580
C          2.11770       -3.65860       -3.41430
H          3.40280       -1.94840       -3.23920
H          3.76730       -4.50120       -1.66090
H          4.63750       -1.80520       -0.49940
H          5.16360       -3.43940       -0.02290
Cl        -0.53820       -2.19150       -2.52300
Cl         0.22500        0.26830       -1.19800
Cl         1.29100       -0.30660       -3.71910
Br         1.74840       -0.44140        1.68480
Br        -0.84000       -2.06330        0.72270
Br         1.23020       -3.40480        2.47820
F          2.97270       -4.33920       -4.26490
F          1.44460       -4.57570       -2.62430
H          1.39000       -3.12890       -4.05620
