23
TSA8_9_Et_Br_CHF2
C          2.52000        1.65220        0.12790
C          1.09840        1.80390       -0.52130
C          2.46100        0.54430        1.21640
H          3.19890        1.26320       -0.66240
Br         1.23890        1.83880       -2.45880
C          2.97080        3.07560        0.57370
C          1.94630        3.68910        1.55070
C          0.52130        3.21100        1.24040
O          0.37880        2.97520       -0.13850
C          4.40370        3.26820        1.09290
H          2.91950        3.67610       -0.36330
H          2.14770        3.46060        2.61980
H         -0.20220        3.98250        1.57530
H          0.25750        2.29070        1.80780
C          3.80790       -0.11250        1.53600
H          1.84480       -0.28930        0.81100
H          1.97200        0.89990        2.14480
H          4.25190       -0.53950        0.61170
H          3.64450       -0.94210        2.25620
H          4.53880        0.56960        1.98690
F          4.56660        2.77030        2.37100
F          5.31630        2.68650        0.23150
H          4.61710        4.35740        1.14810
