19
TSA8_9_Cl_Me_NO2
C          3.05630        0.49790        1.64860
C          1.56610        0.67210        1.46810
Cl         3.74940       -0.16700        0.13580
H          3.50630        1.50290        1.80540
C          0.95360        2.03870        1.54090
C          3.39060       -0.36200        2.89670
C          2.90810       -1.79140        2.75760
C          2.00700       -2.32220        3.58990
O          0.85240       -0.29670        1.25390
N          4.81940       -0.35780        3.16120
H          2.88190        0.11930        3.76440
H          3.30780       -2.41000        1.95920
H          1.58100       -1.74310        4.40300
H          1.68900       -3.35130        3.45760
H          1.15460        2.48440        2.53750
H         -0.14530        1.98710        1.38620
H          1.39540        2.68630        0.75480
O          5.58950       -0.83180        2.38030
O          5.27420        0.15310        4.28510
