19
TSA8_9_Cl_Me_NO2
C          3.04620        0.29260        1.61820
C          1.48230        0.30360        1.59590
Cl         3.64890       -0.91510        0.43750
H          3.44820        1.27150        1.27600
C          0.94740        1.73040        1.70910
C          3.50710       -0.00890        3.05570
C          2.95250       -1.36950        3.52140
C          1.59250       -1.66500        2.86410
O          0.87930       -0.46930        2.63920
N          4.94810        0.06120        3.21610
H          3.04210        0.77100        3.70000
H          3.62140       -2.22720        3.29000
H          1.00950       -2.34360        3.52000
H          1.71620       -2.21070        1.90150
H          1.25420        2.18860        2.67330
H         -0.16110        1.71740        1.65260
H          1.33040        2.34920        0.87030
O          5.66730       -0.69290        2.63200
O          5.47290        0.95550        4.02600
