17
TSA8_9_F_H_CBr3
C          3.17370        1.63100       -0.49500
C          1.63320        1.60040       -0.68700
F          3.51580        0.94820        0.66020
H          3.64130        1.09960       -1.34990
H          1.43840        1.75820       -1.76970
C          3.61030        3.10570       -0.40630
C          2.91100        3.76460        0.80710
C          1.58250        3.06660        1.15240
O          0.91610        2.63850       -0.01400
C          5.14430        3.34130       -0.41050
H          3.20890        3.59920       -1.32000
H          3.52350        3.75850        1.73390
H          0.94070        3.77020        1.72180
H          1.74860        2.19330        1.82360
Br         5.52900        5.24590       -0.38110
Br         6.05310        2.52700        1.10540
Br         5.94600        2.63740       -2.03450
