23
TSA8_9_OMe_NH2_CH2F
C          0.89660        1.29630       -0.74650
C          1.64420        0.05310       -1.18950
O          1.78510        2.15770       -0.05270
H          0.02310        1.01600       -0.10760
N          1.24290       -1.17460       -0.78640
C          0.31920        2.04740       -1.97190
C         -0.65440        1.16000       -2.71860
C         -0.45790        0.80340       -3.99130
O          2.62220        0.16120       -1.91540
C         -0.40480        3.33230       -1.54170
H          1.16300        2.34210       -2.63740
H         -1.54080        0.79960       -2.20320
H          0.41490        1.14010       -4.54140
H         -1.17890        0.16500       -4.49160
C          1.90830        1.75990        1.29660
H          2.57500        2.48040        1.81300
H          2.38090        0.75670        1.37870
H          0.92980        1.79460        1.82510
H          1.75510       -2.01660       -1.08800
H          0.42270       -1.28800       -0.17350
F         -0.88720        4.00240       -2.65280
H          0.29440        4.00950       -1.00710
H         -1.25420        3.09620       -0.86500
