19
TSA8_9_CH2F_F_NO2
C          1.53920       -1.14400        1.77490
C          1.19230        0.27280        1.37270
C          1.28030       -2.07720        0.57390
H          2.63290       -1.16090        1.97920
F          2.16490        1.22120        1.34370
C          0.80870       -1.51870        3.10640
C         -0.70170       -1.50750        2.97650
C         -1.46630       -0.66290        3.67680
O          0.05210        0.57660        1.05770
N          1.23820       -2.80240        3.63760
H          1.11380       -0.73760        3.84190
H         -1.18270       -2.20670        2.29920
H         -1.02960        0.05190        4.36710
H         -2.54470       -0.68370        3.55980
F          1.79280       -3.34170        0.78670
H          1.80180       -1.67210       -0.32050
H          0.19830       -2.14370        0.33720
O          0.93890       -3.82450        3.09710
O          1.87100       -2.84920        4.79110
