19
TSA8_9_CH2F_F_NO2
C          1.42610       -1.48140        1.99140
C          1.21620        0.03910        1.84810
C          1.18820       -2.15470        0.62580
H          2.48590       -1.67590        2.26690
F          1.69980        0.74280        2.94190
C          0.50510       -1.98000        3.13990
C         -0.94160       -1.53050        2.89660
C         -0.96000       -0.01180        2.68020
O         -0.14120        0.36330        1.58340
N          0.57640       -3.41560        3.35330
H          0.85030       -1.47490        4.07140
H         -1.36980       -2.03710        2.00590
H         -0.65700        0.52590        3.60660
H         -2.00400        0.29820        2.46670
F          2.04810       -1.61760       -0.31650
H          0.14700       -2.00950        0.27240
H          1.40070       -3.24030        0.68200
O          0.17000       -4.18060        2.53150
O          1.02260       -3.88240        4.50020
