25
TSA8_9_Et_Me_NO2
C          1.89500        0.17870       -0.16170
C          1.46900        1.34040       -0.73920
C          1.92850       -0.24850        1.28710
H          2.25970       -0.59760       -0.83040
C          1.53960        1.45040       -2.23950
C          2.59070        4.39640        2.13490
C          2.25020        3.15840        1.73150
C          0.87460        2.85400        1.19280
O          0.95020        2.44690       -0.12270
N          3.88810        4.70380        2.63370
H          1.85880        5.19810        2.07790
H          2.97930        2.36040        1.78270
H          0.25870        3.77830        1.21280
H          0.31360        2.12620        1.80720
C          3.34640       -0.64650        1.68780
H          1.27170       -1.13770        1.39690
H          1.57600        0.50060        1.99970
H          3.71610       -1.46930        1.03870
H          3.35040       -1.00120        2.74030
H          4.03550        0.21930        1.60000
H          2.18190        2.31420       -2.51120
H          0.51910        1.62170       -2.64160
H          1.95640        0.54320       -2.72700
O          4.73410        3.86390        2.71410
O          4.16340        5.93500        3.00380
