17
TSA8_9_I_Br_CHF2
C          2.30090       -0.59000       -2.43110
C          1.09870        0.11970       -1.73770
I          4.14670       -0.07030       -1.43680
H          2.21740       -1.68670       -2.27330
Br        -0.44580       -1.05870       -1.76650
C          2.25910       -0.24230       -3.93060
C          2.35540        1.28430       -4.12180
C          1.76910        2.04210       -2.91610
O          0.68270        1.34090       -2.35670
C          3.27910       -0.99450       -4.80090
H          1.25070       -0.55110       -4.28560
H          3.39460        1.65200       -4.26440
H          1.44430        3.05050       -3.24640
H          2.53630        2.22100       -2.13240
F          4.57880       -0.64850       -4.47880
F          3.12170       -2.36030       -4.64630
H          3.10680       -0.74140       -5.86890
