17
TSA8_9_CF3_I_Br
C          1.64590       -1.66910        0.14590
C          0.86870       -0.62760        0.92120
C          1.67720       -1.29300       -1.35680
H          2.69600       -1.63450        0.51030
I          1.83560        0.54260        2.38870
C          1.11440       -3.09580        0.47380
C         -0.30460       -3.34340        0.01860
C         -1.28840       -3.60470        0.88520
O         -0.32030       -0.44440        0.71060
Br         2.25090       -4.49040       -0.26340
H          1.18020       -3.21930        1.57850
H         -0.53930       -3.32080       -1.03990
H         -1.10260       -3.64280        1.95400
H         -2.29600       -3.78260        0.52370
F          2.45020       -2.18460       -2.07550
F          0.40590       -1.26300       -1.90080
F          2.23760       -0.03530       -1.50010
