26
TSA8_9_OMe_NO2_Et
C          2.61090       -0.01210       -1.59980
C          1.48660       -0.95460       -1.03710
O          2.13130        1.31680       -1.68950
H          3.52460       -0.05050       -0.95810
N          2.08530       -2.04310       -0.28560
C          2.97180       -0.53460       -3.00430
C          1.73260       -0.46120       -3.92440
C          0.43160       -0.60290       -3.11420
O          0.60840       -1.49350       -2.03540
C          4.24790        0.07000       -3.63810
H          3.20120       -1.61690       -2.87400
H          1.64380        0.48540       -4.49600
H         -0.37590       -0.96650       -3.78250
H          0.08250        0.38130       -2.72750
C          2.10700        1.93720       -0.41800
H          2.99920        2.58680       -0.30270
H          2.05450        1.22490        0.43810
H          1.19310        2.56230       -0.35080
O          1.88650       -3.17970       -0.59170
O          2.80600       -1.77880        0.78310
C          4.21810        1.57780       -3.89890
H          4.43960       -0.44780       -4.60380
H          5.10780       -0.14270       -2.96600
H          3.40950        1.85370       -4.60420
H          5.18380        1.88210       -4.35580
H          4.10070        2.14370       -2.95380
