23
TSA8_9_CCl3_Cl_Et
C          1.66410       -1.54790        1.64640
C          3.07410       -1.47130        2.25600
C          1.65530       -2.12560        0.18320
H          1.35480       -0.48430        1.52120
Cl         4.51920       -2.20840        1.56230
C          0.67200       -2.12370        2.73950
C         -0.79160       -1.84200        2.44970
C         -1.51050       -0.97250        3.16970
O          3.23230       -0.84630        3.29330
C          0.89090       -3.59580        3.18980
H          0.92360       -1.52300        3.64330
H         -1.29590       -2.35890        1.64420
H         -1.07240       -0.42080        3.99450
H         -2.55580       -0.80710        2.92860
Cl         2.29890       -3.78340        0.01740
Cl         0.04260       -2.08390       -0.57310
Cl         2.66270       -1.08200       -0.86510
C          0.12550       -4.67650        2.41260
H          0.51250       -3.68680        4.23270
H          1.97830       -3.81970        3.22120
H         -0.96880       -4.53690        2.53270
H          0.37980       -5.67350        2.83060
H          0.34170       -4.68650        1.33660
