23
TSA8_9_OMe_CN_OMe
C          1.61850       -1.11240       -1.16930
C          2.47950       -1.58620       -0.02260
O          2.27440       -0.05670       -1.85190
H          0.65800       -0.80380       -0.68280
C          1.93160       -1.59550        1.31880
C          1.29750       -2.27260       -2.14190
C         -0.08380       -2.07900       -2.76150
C         -1.14530       -2.72300       -2.26010
O          3.59040       -2.04960       -0.22370
O          2.37330       -2.55310       -3.04220
H          1.19360       -3.17860       -1.50430
H         -0.25790       -1.36670       -3.56000
H         -1.04240       -3.40150       -1.41650
H         -2.13480       -2.54870       -2.66430
C          1.45970        1.08960       -1.94860
H          1.81050        1.68520       -2.81560
H          1.56060        1.70750       -1.03110
H          0.39350        0.84860       -2.15830
N          1.48370       -1.59120        2.38520
C          2.26090       -1.91530       -4.30580
H          1.72990       -2.58310       -5.01830
H          3.27780       -1.72540       -4.70830
H          1.78110       -0.91360       -4.26800
