23
TSA8_9_OMe_CN_OMe
C          1.60670       -0.06200        0.04830
C          1.53090       -1.35290        0.44310
O          1.71350        0.28200       -1.26270
H          1.50550        0.72600        0.78950
C          1.26510       -1.67970        1.82100
C          0.96440       -3.44340       -3.63630
C          1.07790       -2.46200       -2.72870
C          0.55100       -2.60810       -1.33910
O          1.56960       -2.38260       -0.43530
O          1.43850       -3.33480       -4.90720
H          0.46940       -4.36750       -3.35560
H          1.55140       -1.52380       -2.98840
H          0.10800       -3.61000       -1.15100
H         -0.26810       -1.88200       -1.20620
C          1.10280        1.41680       -1.78090
H          1.47760        1.62310       -2.80270
H          1.27180        2.30690       -1.13940
H          0.00540        1.26050       -1.88360
N          1.05090       -1.97380        2.91930
C          2.13900       -2.25810       -5.41430
H          2.40120       -2.46110       -6.47220
H          3.07680       -2.11020       -4.83550
H          1.51870       -1.33660       -5.37220
