23
TSA8_9_OMe_CN_OMe
C          1.59990       -1.16070       -1.36120
C          1.64990       -2.00640       -0.07050
O          2.51790       -0.08290       -1.47860
H          0.56560       -0.76380       -1.31180
C          1.51060       -1.24210        1.16840
C          1.74790       -2.24900       -2.44280
C          0.33730       -2.83530       -2.60610
C         -0.25480       -3.04850       -1.14510
O          0.75750       -3.14220       -0.12040
O          2.68700       -1.94180       -3.46610
H          2.25820       -3.15340       -2.03380
H         -0.33500       -2.11220       -3.13660
H         -0.89170       -3.95370       -1.13690
H         -0.95050       -2.22270       -0.85760
C          1.84420        1.10930       -1.92640
H          2.23330        1.44650       -2.90790
H          1.95900        1.90380       -1.16320
H          0.73920        1.04910       -2.09810
N          1.43230       -0.61690        2.13850
C          2.19540       -1.70900       -4.74980
H          1.91740       -2.65110       -5.26960
H          3.06040       -1.29690       -5.32210
H          1.41660       -0.92830       -4.74560
