20
TSA8_9_CH2F_CBr3_H
C          1.70360       -0.12840        0.04270
C          1.42990       -1.45420        0.17970
C          1.85750        0.62260       -1.25340
H          1.79600        0.50070        0.91740
C          1.19870       -2.09080        1.54290
C          4.01290       -4.16090       -1.82160
C          2.72060       -3.85100       -1.96350
C          2.23270       -2.43220       -1.92010
O          1.33000       -2.30730       -0.88010
H          4.32800       -5.19850       -1.85400
H          4.76360       -3.39120       -1.66960
H          1.99830       -4.64870       -2.10920
H          1.72370       -2.20540       -2.88020
H          3.09450       -1.74040       -1.79050
F          3.13070        1.15420       -1.33000
H          1.12010        1.45200       -1.26610
H          1.65810        0.01890       -2.15430
Br         1.32940       -0.91790        3.09610
Br        -0.57310       -2.87470        1.57050
Br         2.49230       -3.51200        1.79630
