20
TSA8_9_CH2F_CBr3_H
C          2.65440       -1.17050       -0.33500
C          1.21180       -1.70470       -0.11260
C          2.61090        0.11980       -1.17890
H          3.11040       -0.83100        0.61910
C          0.93310       -2.47560        1.20090
C          3.55890       -2.26060       -0.94430
C          2.81020       -3.22270       -1.87870
C          1.45590       -2.67090       -2.32040
O          0.59160       -2.33660       -1.23920
H          3.97980       -2.88780       -0.12940
H          4.43490       -1.80410       -1.45040
H          2.60230       -4.17220       -1.34300
H          0.96220       -3.46690       -2.91670
H          1.56860       -1.82170       -3.01560
F          3.88290        0.65190       -1.30110
H          1.97740        0.87050       -0.65930
H          2.19550       -0.00970       -2.18980
Br         1.40160       -1.39770        2.74600
Br        -0.97000       -2.82500        1.33710
Br         1.84660       -4.17900        1.34970
