17
TSA8_9_NH2_H_CN
C          2.33180       -1.50080        0.70080
C          1.32470       -0.87600        1.63870
N          2.15850       -0.91340       -0.64080
H          3.31900       -1.17940        1.08970
H          1.25590        0.20280        1.69400
C          2.26170       -3.06630        0.69770
C          1.22680       -3.55950       -0.29740
C         -0.08510       -3.49990       -0.04640
O          0.63510       -1.54890        2.38770
C          3.54870       -3.69740        0.36460
H          2.04400       -3.46630        1.70490
H          1.54690       -3.93470       -1.27100
H         -0.45510       -3.14150        0.90410
H         -0.79980       -3.81850       -0.79750
H          2.89010       -1.25270       -1.30530
H          1.20660       -1.11800       -1.03220
N          4.55950       -4.22310        0.16750
