17
TSA8_9_NH2_H_CN
C          1.56710       -0.02400        0.05720
C          1.35820       -0.65110        1.33020
N          1.66130       -0.61230       -1.21360
H          1.50160        1.04850        0.07510
H          1.46360        0.03060        2.17390
C          2.11720       -4.80660        0.90510
C          1.86400       -3.63400        0.31850
C          0.66690       -2.86970        0.78440
O          1.14280       -1.96960        1.70650
C          3.46620       -5.29750        0.90430
H          1.37780       -5.31290        1.52110
H          2.62040       -3.13770       -0.29990
H         -0.04290       -3.49870        1.33680
H          0.04430       -2.39000        0.00110
H          2.68510       -0.72270       -1.20910
H          1.18210       -1.47880       -1.50360
N          4.57030       -5.67760        0.89080
