20
TSA8_9_CHF2_I_CH2F
C          2.80790        1.25890       -0.59130
C          1.41690        0.99780       -1.12770
C          2.97650        0.51910        0.75660
H          3.51740        0.78550       -1.30490
I          1.16120       -0.07060       -2.93150
C          3.10920        2.79620       -0.60560
C          2.20950        3.59370        0.31740
C          1.34590        4.50310       -0.14560
O          0.42690        1.38920       -0.52910
C          4.57750        3.14890       -0.31050
H          2.93530        3.12050       -1.65810
H          2.26710        3.43580        1.38920
H          1.25240        4.70180       -1.20850
H          0.72130        5.05780        0.54710
F          4.28420        0.54970        1.19710
F          2.14290        1.02810        1.73550
H          2.71630       -0.55160        0.60980
F          4.91430        2.92710        1.01180
H          4.73970        4.22900       -0.51620
H          5.25510        2.57120       -0.97430
