20
TSA8_9_NO2_CBr3_CN
C          1.46090       -1.28250       -1.20860
C          2.30370       -1.83590       -0.04820
N          2.12790       -0.15160       -1.84460
H          0.53810       -0.88280       -0.74170
C          1.90680       -1.63960        1.42980
C          1.01990       -2.38460       -2.24430
C          0.51040       -3.59520       -1.51030
C         -0.61050       -3.52310       -0.80190
O          3.33670       -2.43290       -0.31070
C          2.06870       -2.83460       -3.18450
H          0.22130       -1.98310       -2.89720
H          1.07250       -4.52990       -1.52210
H         -0.94790       -4.37550       -0.22770
H         -1.17620       -2.59640       -0.77590
O          2.50640        0.76090       -1.17440
O          2.16140       -0.02960       -3.15510
Br         1.88950        0.23830        1.90210
Br         0.16300       -2.32550        1.92600
Br         3.15790       -2.51480        2.63190
N          2.82280       -3.25080       -3.96000
