20
TSA8_9_NO2_CBr3_CN
C          1.23230       -1.31980       -1.26570
C          1.90720       -2.03530       -0.01850
N          1.96360       -0.14020       -1.75390
H          0.24770       -0.97530       -0.88130
C          1.79670       -1.41570        1.42450
C          0.87240       -2.34090       -2.43190
C          0.43810       -3.73050       -1.92590
C          0.27380       -3.70260       -0.43040
O          1.54520       -3.40970        0.12090
C          1.87030       -2.56420       -3.49970
H          0.00140       -1.88740       -2.95020
H          1.24940       -4.48480       -2.08670
H         -0.05620       -4.69910       -0.07300
H         -0.52300       -2.98590       -0.13630
O          2.13880        0.79600       -1.04240
O          2.33670       -0.02740       -3.01040
Br         2.17240        0.46170        1.70910
Br         0.05640       -1.72480        2.24060
Br         3.09040       -2.33890        2.53710
N          2.62240       -2.76390       -4.35710
