20
TSA8_9_F_CHF2_CHF2
C          2.11450        2.17620        0.12350
C          0.93260        2.52110       -0.74930
F          1.80740        1.02400        0.82880
H          3.00190        1.96260       -0.51290
C          1.07190        2.55960       -2.24530
C          2.45670        3.31170        1.11560
C          3.59320        2.87130        2.01160
C          3.45190        2.77100        3.33710
O         -0.15040        2.75540       -0.23290
C          2.84900        4.61390        0.39340
H          1.55340        3.52030        1.73320
H          4.55430        2.62740        1.56700
H          2.50890        3.00440        3.82210
H          4.28890        2.45110        3.94900
F         -0.13750        2.87470       -2.84060
F          2.01090        3.50780       -2.60540
H          1.40100        1.56430       -2.61010
F          3.12010        5.60550        1.32010
F          3.96750        4.41940       -0.39990
H          2.01410        4.96500       -0.24810
