20
TSA8_9_CBr3_CHF2_I
C          0.67110       -0.61540        1.28090
C          2.03220       -1.03410        1.85860
C          0.59860       -0.33820       -0.25720
H          0.51490        0.38780        1.73290
C          3.24160       -1.45280        1.06100
C         -0.51530       -1.53910        1.76340
C         -0.14110       -2.72810        2.62490
C          0.61910       -3.72780        2.16610
O          2.15530       -1.02030        3.07590
I         -1.98140       -0.37270        2.83010
H         -1.06240       -1.95450        0.89050
H         -0.51290       -2.79020        3.64290
H          0.85960       -4.56670        2.81030
H          1.00380       -3.71870        1.15150
Br        -1.10580        0.47250       -0.73060
Br         1.93400        0.96610       -0.81240
Br         0.76490       -1.94660       -1.34540
F          4.28570       -0.58580        1.32420
F          3.61530       -2.73070        1.43500
H          3.07060       -1.45900       -0.02540
