14
TSA8_9_Br_Br_Br
C          2.31370        1.89870        0.13030
C          0.93110        1.41680        0.66120
Br         3.70730        0.59640        0.54800
H          2.29300        1.94970       -0.97940
Br        -0.46250        2.00100       -0.55850
C          2.60580        3.27520        0.73470
C          2.62130        3.19680        2.26950
C          1.70130        2.07470        2.78430
O          0.57410        1.92300        1.95100
Br         4.23900        4.07850        0.05570
H          1.76770        3.94360        0.43980
H          3.63430        3.00730        2.68600
H          1.38240        2.31450        3.81950
H          2.23960        1.10450        2.85630
