19
TSA8_9_CH2F_NH2_Br
C          2.74840       -1.12840        0.22730
C          1.44570       -1.31920        0.98610
C          2.49950       -0.17360       -0.95900
H          3.45920       -0.62780        0.92110
N          1.35600       -0.97320        2.29310
C          3.43070       -2.47260       -0.18350
C          2.73530       -3.26800       -1.26840
C          1.60960       -3.95860       -1.06840
O          0.45580       -1.75170        0.41630
Br         5.26480       -2.14370       -0.76060
H          3.54960       -3.11780        0.71430
H          3.19310       -3.32440       -2.25200
H          1.12640       -3.99310       -0.10030
H          1.17360       -4.52680       -1.88380
F          3.67460        0.16080       -1.60440
H          2.04010        0.76800       -0.58820
H          1.80360       -0.63380       -1.69270
H          0.46770       -1.08860        2.80330
H          2.16750       -0.59190        2.80030
