16
TSA8_9_NO2_F_Br
C          1.61150        0.72170       -1.64370
C          1.20450       -0.60020       -1.03610
N          1.37890        1.79630       -0.68410
H          2.70540        0.67590       -1.84240
F          2.13600       -1.57070       -0.84670
C          0.92150        0.92980       -3.02210
C         -0.58940        0.97520       -2.95030
C         -1.35090        0.06900       -3.57200
O          0.04940       -0.80360       -0.69600
Br         1.57260        2.54100       -3.89480
H          1.23570        0.08450       -3.67490
H         -1.08280        1.75850       -2.38610
H         -0.90970       -0.73670       -4.15070
H         -2.43200        0.12940       -3.50130
O          1.92340        1.76020        0.37860
O          0.61830        2.83080       -0.97230
