16
TSA8_9_NO2_F_Br
C          1.89830        0.01240       -0.11590
C          1.19880       -0.38930       -1.19060
N          2.05220        1.37860        0.26130
H          2.36820       -0.75140        0.49870
F          1.11240       -1.72300       -1.45230
C         -0.44020        1.61130       -5.05390
C         -0.71000        1.34850       -3.77070
C         -0.18380        0.12200       -3.08470
O          0.58460        0.50160       -2.00650
Br        -1.13410        3.18680       -5.88510
H          0.17320        0.93920       -5.64620
H         -1.32790        2.03730       -3.20220
H          0.42760       -0.49390       -3.78180
H         -1.04590       -0.48550       -2.73330
O          2.68750        1.64740        1.23560
O          1.50130        2.35120       -0.43350
