19
TSA8_9_NO2_Cl_CHF2
C          1.59880       -2.38590        0.23220
C          1.26840       -1.11840        0.98900
N          1.66730       -2.08130       -1.19460
H          2.61070       -2.71640        0.55740
Cl         2.41300       -0.45630        2.14530
C          0.61460       -3.53340        0.64110
C         -0.83000       -3.25670        0.26530
C         -1.78280       -3.10920        1.19200
O          0.21360       -0.53430        0.79530
C          1.05410       -4.92110        0.12820
H          0.68830       -3.60360        1.75150
H         -1.11780       -3.18010       -0.77670
H         -1.55520       -3.17840        2.25130
H         -2.80680       -2.91500        0.89030
O          2.46030       -1.27550       -1.57990
O          0.86650       -2.64630       -2.07080
F          0.24310       -5.89850        0.67860
F          0.99070       -5.02620       -1.24720
H          2.09780       -5.12320        0.45010
