19
TSA8_9_NO2_Cl_CHF2
C          1.99170       -0.11410        0.05570
C          1.20280       -0.86420        0.84550
N          2.40360       -0.50630       -1.25230
H          2.32990        0.84820        0.43320
Cl         0.77170       -0.22770        2.43740
C         -0.15120       -5.32790        0.93660
C         -0.39700       -4.12550        0.39360
C         -0.13980       -2.85220        1.14420
O          0.74830       -2.07530        0.43150
C         -0.41440       -6.59540        0.18050
H          0.24300       -5.40100        1.94660
H         -0.79730       -4.05940       -0.61470
H          0.27390       -3.06550        2.15500
H         -1.10110       -2.30640        1.25750
O          3.09800        0.22560       -1.88950
O          2.02410       -1.65090       -1.77970
F         -1.75220       -6.67540       -0.16050
F          0.35770       -6.63020       -0.96620
H         -0.15260       -7.46730        0.81660
