19
TSA8_9_Cl_CCl3_NH2
C          2.14340       -0.29940       -2.13900
C          0.97810       -1.25260       -2.30040
Cl         1.79540        0.77700       -0.75200
H          3.06550       -0.87240       -1.89830
C          1.15130       -2.74310       -2.09510
C          2.38020        0.53450       -3.41960
C          3.55360        1.47220       -3.22780
C          3.41820        2.80000       -3.29470
O         -0.12370       -0.79930       -2.57790
N          2.63490       -0.34230       -4.56440
H          1.45520        1.11920       -3.62790
H          4.53540        1.05280       -3.02670
H          2.45390        3.25820       -3.49030
H          4.28240        3.44040       -3.14980
Cl         2.34660       -3.39900       -3.24190
Cl         1.71300       -3.05820       -0.43330
Cl        -0.38350       -3.62700       -2.33400
H          3.52210       -0.87750       -4.41890
H          2.73500        0.23660       -5.43010
