26
TSA8_9_H_Et_Et
C          2.19330        0.24320       -0.33090
C          1.59330        1.15440       -1.11900
H          2.62960        0.48580        0.62510
H          2.24430       -0.79840       -0.62990
C          0.98030        0.72280       -2.42600
C          4.28110        2.62340        1.27450
C          2.97840        2.90620        1.07620
C          2.48270        3.30870       -0.28580
O          1.49530        2.47720       -0.79170
C          4.89990        2.20750        2.58950
H          4.96400        2.68800        0.43230
H          2.25630        2.85610        1.88370
H          3.31270        3.35850       -1.02390
H          2.05780        4.32980       -0.19650
C          1.67610        1.43070       -3.58630
H         -0.09960        0.97770       -2.42890
H          1.07910       -0.37470       -2.57900
H          1.56740        2.53250       -3.49350
H          1.22550        1.10900       -4.54800
H          2.75800        1.17400       -3.59620
C          3.93530        2.12140        3.77100
H          5.69790        2.93870        2.83980
H          5.37120        1.21150        2.44670
H          3.47400        3.11280        3.96570
H          4.49430        1.80980        4.67850
H          3.14310        1.36930        3.57040
