19
TSA8_9_OH_OH_CCl3
C          1.86080        0.20920       -0.10710
C          1.50050        1.44840       -0.50240
O          2.14870       -0.07420        1.17980
H          1.89450       -0.59580       -0.83580
O          1.16370        1.66240       -1.79500
C          2.67400        5.18660        2.01190
C          2.83440        4.17770        1.14190
C          2.28910        2.80300        1.38660
O          1.43030        2.50970        0.34420
C          3.20270        6.56650        1.71430
H          2.14420        5.01170        2.94460
H          3.36950        4.34800        0.21160
H          1.73630        2.74730        2.35000
H          3.15060        2.10520        1.42150
H          2.37660       -0.97500        1.44560
H          1.20150        0.96670       -2.47010
Cl         2.85330        7.66090        3.07610
Cl         4.96870        6.52530        1.46280
Cl         2.41730        7.22030        0.25310
