21
TSA8_9_OMe_CCl3_Cl
C          1.06490        0.75470       -1.40440
C          1.62620       -0.59790       -1.79380
O          2.16080        1.56120       -0.99250
H          0.30920        0.60380       -0.59420
C          1.25010       -1.86470       -1.04500
C          0.34080        1.47370       -2.57740
C         -0.87430        0.74500       -3.11330
C         -0.80220       -0.40720       -3.78710
O          2.43060       -0.65380       -2.71450
Cl        -0.19910        3.08690       -2.02160
H          1.05130        1.64540       -3.41450
H         -1.85730        1.18870       -2.98090
H          0.14350       -0.89500       -3.98670
H         -1.70990       -0.87090       -4.15980
C          2.03070        1.96390        0.35500
H          1.20670        2.69960        0.47010
H          2.97250        2.46240        0.66330
H          1.89310        1.09640        1.03510
Cl         2.05200       -3.30180       -1.74260
Cl         1.76040       -1.73630        0.65740
Cl        -0.50750       -2.14680       -1.08380
