20
TSA8_9_OH_CN_OMe
C          1.42240       -0.18310       -1.25460
C          2.10410       -1.15700       -0.31330
O          1.78270        1.12020       -0.87010
H          0.32680       -0.31240       -1.11030
C          1.72450       -1.16370        1.07560
C          1.77650       -0.42180       -2.75010
C          1.45930       -1.87520       -3.13590
C          0.26430       -2.44150       -2.92070
O          2.89450       -1.99740       -0.71400
O          3.14560       -0.04070       -2.88500
H          1.13390        0.26010       -3.35630
H          2.20840       -2.51850       -3.57280
H          0.10870       -3.48320       -3.18580
H         -0.55450       -1.90210       -2.45930
H          1.19940        1.74850       -1.36800
N          1.40500       -1.18140        2.18420
C          3.76890       -0.42040       -4.09010
H          3.24730       -0.04190       -4.99500
H          3.96940       -1.50720       -4.11350
H          4.78290        0.03080       -4.08260
