20
TSA8_9_OH_CN_OMe
C          1.99280       -0.25650       -1.27170
C          1.00310       -1.18660       -0.53270
O          1.80470        1.07190       -0.85810
H          3.02890       -0.56660       -1.02770
C          1.31130       -1.21920        0.90500
C          1.81530       -0.36840       -2.80420
C          1.74230       -1.85640       -3.21310
C          0.66060       -2.52740       -2.36910
O          1.06610       -2.52290       -1.01460
O          2.75940        0.47940       -3.46490
H          0.81430        0.03760       -3.06830
H          2.68450       -2.39720       -2.97330
H          0.55250       -3.58100       -2.69650
H         -0.33390       -2.04310       -2.50710
H          0.87700        1.33310       -1.10850
N          1.57750       -1.25470        2.03480
C          3.79850       -0.12610       -4.21870
H          3.70670        0.20640       -5.27280
H          3.84770       -1.22470       -4.24250
H          4.77650        0.21540       -3.82150
