17
TSA8_9_CN_NO2_F
C          2.54490        1.29710       -0.43330
C          1.64780        1.18860       -1.66910
C          1.98830        0.68850        0.80980
H          3.46230        0.74200       -0.68590
N          1.61010        0.05240       -2.41110
C          2.94810        2.78630       -0.19500
C          2.06730        3.37530        0.86680
C          0.80250        3.69960        0.61930
O          1.10270        2.19310       -2.11510
F          4.26470        2.84520        0.23690
H          2.93430        3.39820       -1.13100
H          2.43890        3.37460        1.88750
H          0.40380        3.67430       -0.38550
H          0.15090        3.96480        1.43770
N          1.49530        0.26320        1.76770
O          1.16110        0.08100       -3.51390
O          2.15430       -1.06050       -1.96580
