17
TSA8_9_CN_NO2_F
C          1.63460       -0.00100       -0.08010
C          1.48910        0.72080       -1.23840
C          1.82160        0.50520        1.25310
H          1.58910       -1.08180       -0.13650
N          1.48460       -0.01370       -2.44710
C          3.18380        4.58600       -0.04460
C          2.70010        3.34860        0.03490
C          1.28970        3.03120       -0.35120
O          1.33590        2.08060       -1.34510
F          4.45870        4.84360        0.34140
H          2.56570        5.40230       -0.39590
H          3.35070        2.55200        0.38480
H          0.74880        3.94500       -0.71570
H          0.70170        2.67170        0.51760
N          1.97180        0.91600        2.32380
O          1.87720        0.48450       -3.45960
O          0.92150       -1.19870       -2.48190
