18
TSA8_9_OH_NO2_CN
C          2.42160       -1.00710        1.49200
C          1.64460       -0.14070        2.47040
O          1.59060       -1.09120        0.35440
H          3.36970       -0.51560        1.16620
N          1.84550        1.19960        2.56500
C          2.69050       -2.43460        2.10860
C          2.24920       -3.49420        1.14620
C          0.97460       -3.89340        1.18250
O          0.73050       -0.65020        3.10820
C          4.05350       -2.72720        2.58480
H          2.07690       -2.56850        3.02350
H          2.90790       -3.83300        0.35070
H          0.29960       -3.49210        1.93820
H          0.58880       -4.58170        0.44650
H          2.15020       -1.40090       -0.40710
O          1.17260        1.85230        3.30630
O          2.72060        1.80500        1.79240
N          5.10050       -3.02520        2.98250
