18
TSA8_9_OH_NO2_CN
C          1.62500        0.01280        0.07190
C          1.52210       -0.15670        1.43970
O          1.61280       -0.92120       -0.88730
H          1.58620        1.02100       -0.32070
N          1.64090        1.00960        2.23800
C          2.98760       -3.97740        3.12930
C          2.70100       -3.17340        2.09500
C          1.30290       -2.65460        1.83040
O          1.23400       -1.31040        2.12830
C          4.36050       -4.35660        3.35970
H          2.21280       -4.33160        3.80580
H          3.53140       -2.88630        1.45780
H          0.61390       -3.19790        2.50580
H          0.94140       -2.86000        0.82050
H          1.94820       -1.76890       -0.64510
O          2.05500        0.94530        3.35880
O          1.21010        2.15620        1.77180
N          5.47070       -4.64220        3.51990
