19
TSA8_9_F_NO2_CCl3
C          2.32870        1.47120        1.78540
C          1.13580        2.39180        1.60250
F          2.01510        0.30190        1.10780
H          3.21710        1.91640        1.29010
N          0.79960        2.83490        0.35960
C          2.71320        1.12440        3.25860
C          3.65350       -0.06940        3.22130
C          3.33340       -1.24320        3.77640
O          0.44300        2.70540        2.56040
C          3.41300        2.28390        4.05070
H          1.78710        0.82470        3.79890
H          4.61510        0.02480        2.72490
H          2.38270       -1.38770        4.28030
H          4.02960       -2.07390        3.72680
O         -0.15060        3.54270        0.20840
O          1.52020        2.49530       -0.68830
Cl         2.40190        3.73230        4.28350
Cl         3.83860        1.72690        5.69570
Cl         4.92430        2.82190        3.25690
