19
TSA8_9_F_NO2_CCl3
C          1.58970        0.05140        0.03530
C          1.41350        1.09070        0.88590
F          1.99540       -1.18200        0.42770
H          1.37400        0.17060       -1.02090
N          0.92900        2.33670        0.38240
C          3.07170        1.83830        4.63480
C          3.44370        0.90600        3.74300
C          2.43040        0.12910        2.95650
O          1.65620        1.01750        2.22950
C          4.08100        2.64070        5.41360
H          2.01250        2.02550        4.79340
H          4.49870        0.70820        3.57210
H          1.77940       -0.44190        3.65220
H          2.98940       -0.57920        2.32190
O          0.75890        3.25140        1.13030
O          0.67060        2.50060       -0.89860
Cl         3.24340        3.78500        6.49230
Cl         5.09980        1.56830        6.40910
Cl         5.11820        3.57400        4.30240
