19
TSA8_9_F_NO2_CCl3
C          2.96160        1.51450        1.77080
C          1.59250        1.01590        1.21050
F          3.91620        0.52890        1.58410
H          3.29110        2.40300        1.19070
N          0.82450        2.12100        0.68340
C          2.79840        1.81710        3.27490
C          2.34270        0.52900        4.00440
C          1.57600       -0.41910        3.06540
O          0.78400        0.31180        2.15710
C          4.03180        2.47650        3.94710
H          1.96420        2.54620        3.35790
H          3.17840       -0.05980        4.43900
H          0.93870       -1.09670        3.67020
H          2.27470       -1.07990        2.50270
O          0.42410        2.98600        1.40230
O          0.53400        2.15480       -0.59840
Cl         3.66730        2.85890        5.65290
Cl         5.48060        1.42990        3.91040
Cl         4.44020        4.01610        3.14010
