23
TSA8_9_CF3_CHF2_Me
C          2.66280       -1.76120       -0.06500
C          1.31090       -1.59140        0.70430
C          2.73600       -0.70660       -1.19390
H          3.51840       -1.55490        0.61780
C          1.48470       -1.00110        2.10240
C          2.79090       -3.24380       -0.51730
C          1.52450       -3.72550       -1.24600
C          0.25920       -3.17020       -0.57010
O          0.54320       -2.78650        0.75980
C          4.05820       -3.58380       -1.30600
H          2.84070       -3.83280        0.42690
H          1.49520       -3.48460       -2.33060
H         -0.53740       -3.94200       -0.58900
H         -0.15080       -2.30460       -1.14310
F          3.96550       -0.74550       -1.82410
F          1.74260       -0.90440       -2.13480
F          2.58200        0.55810       -0.65340
F          0.24410       -0.77080        2.66660
F          2.19300       -1.87880        2.90420
H          2.03250       -0.03760        2.04140
H          4.05970       -3.09010       -2.29890
H          4.11190       -4.68060       -1.47360
H          4.95850       -3.27220       -0.73460
