20
TSA8_9_CHF2_CBr3_F
C          2.02060       -0.04070        0.21720
C          1.60770        1.00410        1.00660
C          1.78510       -1.53790        0.22240
H          2.65360        0.19790       -0.62370
C          2.02680        2.43420        0.66690
C          1.58640       -0.71320        4.99630
C          1.48380       -0.72930        3.66320
C          0.34480       -0.04660        2.94650
O          0.81650        0.95280        2.12530
F          2.62880       -1.33690        5.60560
H          0.84730       -0.20740        5.60990
H          2.24740       -1.24530        3.09150
H         -0.32330        0.43330        3.69320
H         -0.31600       -0.73500        2.39450
F          3.00480       -2.17930        0.33200
F          0.94680       -2.03820        1.17990
H          1.34060       -1.80790       -0.75840
Br         3.15210        2.72070       -0.90460
Br         0.42850        3.49890        0.39820
Br         2.99380        3.16970        2.17820
