18
TSA8_9_NH2_NH2_F
C          1.82070       -0.10170        0.16350
C          1.54890       -0.66430        1.37220
N          1.90360       -0.77900       -1.08100
H          1.95680        0.97560        0.12750
N          1.42210        0.20260        2.48820
C          4.29320       -3.69250        2.01730
C          3.54510       -2.90010        1.24510
C          2.05780       -3.09180        1.10270
O          1.39350       -1.99770        1.62820
F          5.62770       -3.46660        2.12660
H          3.85030       -4.51490        2.57080
H          4.01910       -2.08070        0.71320
H          1.72400       -3.98640        1.66970
H          1.78880       -3.30520        0.05930
H          2.12710       -0.23440       -1.92560
H          1.62570       -1.75130       -1.21950
H          1.22210       -0.18710        3.41980
H          1.53950        1.22410        2.39720
