20
TSA8_9_H_CBr3_CBr3
C          2.34160        2.74790        0.00060
C          1.14110        3.03470       -0.88260
H          2.33720        1.64430        0.13560
H          3.28480        3.00960       -0.52070
C          1.09750        2.51900       -2.30630
C          2.33460        3.42060        1.40340
C          3.31710        2.66160        2.27820
C          2.93010        2.00770        3.37890
O          0.17950        3.64250       -0.43790
C          2.72120        4.93910        1.40400
H          1.31780        3.30470        1.84130
H          4.36810        2.63860        2.00560
H          1.89080        1.99800        3.69280
H          3.66100        1.47420        3.97740
Br         1.27330        0.58760       -2.34420
Br        -0.57260        2.97390       -3.19500
Br         2.53990        3.30100       -3.33910
Br         2.66360        5.63320        3.22050
Br         4.52040        5.25060        0.72250
Br         1.53880        6.08840        0.38050
