24
TSA8_9_OMe_CCl3_CHF2
C          2.28040       -0.01770       -1.32220
C          1.22590       -1.03750       -0.93020
O          1.89210        1.26030       -0.83500
H          3.25390       -0.37010       -0.90050
C          1.58860       -2.26580       -0.11870
C          2.46530        0.03820       -2.86410
C          1.23050        0.58590       -3.55090
C          0.52650       -0.13000       -4.43200
O          0.06820       -0.86410       -1.28390
C          3.68240        0.89080       -3.26470
H          2.67280       -0.99710       -3.21920
H          0.90540        1.59800       -3.32300
H          0.81420       -1.14460       -4.69080
H         -0.35040        0.30360       -4.90120
C          2.73830        1.69290        0.20590
H          3.77880        1.83660       -0.15870
H          2.69940        0.99880        1.07130
H          2.37440        2.67790        0.56260
Cl         2.80490       -3.23360       -0.99190
Cl         2.25670       -1.79280        1.46320
Cl         0.16810       -3.30870        0.17750
F          3.52930        2.20790       -2.86560
F          4.83710        0.37620       -2.70230
H          3.80040        0.86980       -4.36970
