17
TSA8_9_Cl_CHF2_Br
C          2.98020       -0.01000        1.52600
C          1.42200       -0.05880        1.65350
Cl         3.48990       -0.84180        0.02300
H          3.33360        1.03910        1.42290
C          0.85580        1.27890        2.13740
C          3.59790       -0.66840        2.76590
C          3.10320       -2.11660        2.91280
C          1.68050       -2.27650        2.34850
O          0.94350       -1.08770        2.52510
Br         5.53840       -0.58570        2.78690
H          3.24000       -0.10050        3.65090
H          3.75040       -2.85520        2.39190
H          1.17660       -3.12290        2.85870
H          1.70180       -2.54600        1.26800
F         -0.52570        1.21880        2.15180
F          1.30940        1.57080        3.41140
H          1.16320        2.09120        1.44570
