18
TSA8_9_NO2_F_NO2
C          1.95610       -0.03130        0.11650
C          1.21900        0.34290        1.17560
N          2.22120       -1.39080       -0.22200
H          2.36740        0.75010       -0.51760
F          1.02350        1.67260        1.39640
C         -0.30940       -1.62420        5.11040
C         -0.57210       -1.45580        3.80190
C         -0.14900       -0.21780        3.06500
O          0.67180       -0.56940        2.01570
N         -0.70930       -2.79050        5.82210
H          0.22340       -0.84710        5.65250
H         -1.10710       -2.22090        3.24680
H          0.38740        0.48530        3.74070
H         -1.05720        0.28840        2.67210
O          2.88140       -1.63450       -1.18550
O          1.74330       -2.38460        0.49670
O         -1.29610       -3.67620        5.27640
O         -0.43160       -2.89340        7.10340
