19
TSA8_9_NH2_H_CHF2
C          1.58450       -0.08210        2.64480
C          1.48400        0.71570        1.36480
N          1.47950       -1.51590        2.36130
H          2.59490        0.10960        3.07070
H          2.32000        1.33040        1.04670
C          0.54710        0.38370        3.70690
C         -0.88420        0.22640        3.23160
C         -1.69850        1.27760        3.09000
O          0.48130        0.66880        0.66900
C          0.73310       -0.35930        5.04310
H          0.75380        1.46030        3.90520
H         -1.26680       -0.76340        3.00160
H         -1.36010        2.28550        3.31000
H         -2.71790        1.13230        2.74900
H          2.26360       -1.80410        1.73200
H          0.57620       -1.73740        1.88650
F         -0.12420        0.16220        5.99590
F          0.47630       -1.71320        4.90590
H          1.77460       -0.22840        5.40550
