20
TSA8_9_F_CF3_CF3
C          2.08490        1.13660       -1.93040
C          0.92160        0.44140       -2.59390
F          1.79560        1.25280       -0.58030
H          3.00030        0.51220       -2.03080
C          1.10580       -0.89410       -3.26230
C          2.35960        2.54430       -2.51580
C          3.48380        3.18640       -1.73150
C          3.30990        4.31470       -1.03600
O         -0.18430        0.96180       -2.56980
C          2.74190        2.51640       -4.01150
H          1.43520        3.15650       -2.40890
H          4.46370        2.71660       -1.73070
H          2.34770        4.81660       -1.00820
H          4.13990        4.74460       -0.48490
F         -0.09210       -1.34080       -3.79300
F          2.03400       -0.78560       -4.28080
F          1.55550       -1.81550       -2.33490
F          3.87060        1.73990       -4.21210
F          1.70590        2.01030       -4.77490
F          3.00320        3.80360       -4.44880
