20
TSA8_9_F_CF3_CF3
C          1.80270        0.04480       -0.14270
C          1.51710        0.31200       -1.43840
F          2.17150        1.00270        0.74520
H          1.71330       -0.96410        0.24550
C          1.05310       -0.78370       -2.36810
C          2.53320        3.55960       -3.88210
C          3.15430        3.13280       -2.77030
C          2.37140        2.63820       -1.58970
O          1.60080        1.55880       -1.98540
C          3.26880        4.05310       -5.09850
H          1.44700        3.55060       -3.92200
H          4.23830        3.13310       -2.70620
H          1.70890        3.45060       -1.22250
H          3.09880        2.37230       -0.79930
F         -0.19680       -0.45970       -2.86210
F          1.93880       -0.88000       -3.42510
F          0.97600       -2.01670       -1.74230
F          4.64230        4.00930       -4.92720
F          2.92940        3.26240       -6.18000
F          2.89200        5.35700       -5.35710
