18
TSA8_9_Br_CBr3_CN
C          1.61540       -0.04940        0.03530
C          1.46630       -1.20200        0.84020
Br         1.78920        0.17350       -1.84400
H          1.49320        0.94260        0.47450
C          1.58190       -1.10770        2.38110
C          1.69500       -4.71880       -1.50890
C          1.56640       -3.40010       -1.65140
C          0.53630       -2.72370       -0.83920
O          1.15910       -2.46840        0.37550
C          2.96700       -5.31550       -1.79660
H          0.91390       -5.31620       -1.04280
H          2.37110       -2.80020       -2.06310
H         -0.32870       -3.37950       -0.65560
H          0.10350       -1.84020       -1.36280
Br         0.68320        0.46040        3.05040
Br         0.75240       -2.66590        3.19240
Br         3.33390       -1.06140        3.26350
N          4.00470       -5.76360       -2.03800
