20
TSA8_9_CN_NO2_CF3
C          2.89150        1.59990       -0.48220
C          1.51760        1.22740       -1.11900
C          2.79510        1.26610        0.95480
H          3.71030        0.97570       -0.90520
N          1.72320        0.57890       -2.39440
C          3.10940        3.10260       -0.78810
C          2.03340        3.90930       -0.05200
C          0.66120        3.23220       -0.20480
O          0.63790        2.34480       -1.30990
C          4.51460        3.69170       -0.61480
H          2.91850        3.23440       -1.87470
H          2.24750        4.03730        1.03520
H         -0.07900        4.04440       -0.36150
H          0.35350        2.69330        0.71900
N          2.71220        0.96660        2.07050
O          2.28700        1.14330       -3.28330
O          1.26500       -0.63800       -2.58330
F          5.38230        3.08880       -1.51050
F          4.46350        5.04440       -0.91580
F          4.99400        3.52990        0.66920
