20
TSA8_9_Br_CBr3_CCl3
C          3.26080        1.77960        1.31480
C          1.70600        1.71950        1.13280
Br         3.95600        0.00610        0.90640
H          3.71100        2.46360        0.56740
C          1.14210        2.74550        0.13250
C          3.58480        2.27460        2.75070
C          2.89660        1.36280        3.79000
C          1.53940        0.86140        3.27250
O          0.99510        1.79750        2.36770
C          5.07800        2.54930        3.08490
H          3.08060        3.26320        2.82780
H          3.49660        0.47780        4.09160
H          0.85160        0.70130        4.12790
H          1.64480       -0.13280        2.77760
Br         1.91420        2.49370       -1.63150
Br        -0.77260        2.49370       -0.04590
Br         1.46290        4.57130        0.71170
Cl         5.20020        3.30640        4.69810
Cl         6.09740        1.08390        3.11140
Cl         5.78320        3.69940        1.91560
