17
TSA8_9_CCl3_I_I
C          1.57670       -0.43330       -1.56770
C          0.79900       -1.01120       -0.39930
C          1.50360        1.13490       -1.54540
H          2.64240       -0.70040       -1.39890
I          1.80560       -2.07590        1.12230
C          1.16130       -1.19330       -2.87210
C         -0.24520       -0.91960       -3.34410
C         -1.18510       -1.87030       -3.35620
O         -0.41340       -0.88560       -0.32270
I          2.49480       -0.94470       -4.53710
H          1.26840       -2.27840       -2.64400
H         -0.50520        0.06970       -3.70160
H         -0.97130       -2.87860       -3.01540
H         -2.18460       -1.63960       -3.71020
Cl        -0.15190        1.79450       -1.69040
Cl         2.15170        1.73130        0.01060
Cl         2.50540        1.90380       -2.80100
