17
TSA8_9_CCl3_I_I
C          1.84060       -0.04770       -0.02950
C          1.16460       -1.01410       -0.67970
C          2.12640        1.36660       -0.50140
H          2.23050       -0.29630        0.95370
I          0.95170       -2.88860        0.31170
C         -0.16690       -1.70590       -5.08730
C         -0.51430       -1.14400       -3.92510
C         -0.10880       -1.73340       -2.60630
O          0.63640       -0.80700       -1.91150
I         -0.76020       -0.83670       -6.91640
H          0.42450       -2.61600       -5.11570
H         -1.10700       -0.23410       -3.92770
H          0.48880       -2.66040       -2.75420
H         -1.02740       -1.98190       -2.03220
Cl         1.49660        1.81610       -2.11360
Cl         1.42890        2.49870        0.68120
Cl         3.88990        1.60190       -0.52770
