19
TSA8_9_CH2F_CN_OH
C          1.89630       -1.03800       -1.85370
C          1.62420       -2.24910       -0.90180
C          2.18920        0.50470       -1.73100
H          1.00550       -0.67860       -1.35080
C          1.68790       -2.01440        0.55170
C          1.47580       -1.55610       -3.24590
C         -0.04740       -1.62480       -3.26570
C         -0.55720       -2.27730       -1.94590
O          0.46320       -3.03660       -1.27290
O          1.99120       -0.80860       -4.31250
H          1.85960       -2.60490       -3.35440
H         -0.44610       -0.58130       -3.32280
H         -1.42870       -2.90830       -2.19790
H         -0.95260       -1.49870       -1.24930
F          3.10660        0.76050       -0.73520
H          1.30270        1.20430       -1.57550
H          2.59420        0.88750       -2.68680
N          1.73580       -1.85520        1.69680
H          1.76470       -1.31880       -5.13660
