23
TSA8_9_CHF2_CHF2_CH2F
C          2.00280       -0.01810       -0.19190
C          1.59090       -0.92510       -1.13190
C          1.88630        1.48490       -0.04690
H          2.52740       -0.42990        0.66680
C          1.88410       -2.38250       -0.87070
C          2.23200        1.11300       -4.87500
C          1.94580        1.03020       -3.56720
C          0.66290        0.40790       -3.07440
O          0.93150       -0.70730       -2.31150
C          3.51580        1.72210       -5.34960
H          1.53380        0.73240       -5.61550
H          2.66070        1.41200       -2.84550
H          0.05630        0.07190       -3.94210
H          0.00530        1.11080       -2.53720
F          3.15620        2.02710        0.01670
F          1.17870        2.14690       -1.01260
H          1.37470        1.68790        0.91680
F          0.69520       -3.08700       -0.83090
F          2.66900       -2.87950       -1.89430
H          2.41890       -2.55480        0.08820
F          3.59310        3.04150       -4.94280
H          3.55960        1.68290       -6.45860
H          4.37770        1.15610       -4.93740
