23
TSA8_9_Me_CH2F_CH2F
C          2.76130        1.19750        0.16680
C          1.35270        1.47120       -0.32290
C          2.83790       -0.23010        0.73740
H          3.43910        1.23580       -0.71550
C          1.10550        1.74660       -1.77870
C          3.23310        2.30700        1.15650
C          2.41810        2.33080        2.43430
C          1.68410        3.39090        2.78740
O          0.41400        1.46180        0.46030
C          4.72240        2.16650        1.50870
H          3.12580        3.27940        0.62270
H          2.43140        1.46610        3.09090
H          1.64200        4.27890        2.16480
H          1.11630        3.37200        3.71170
H          2.17110       -0.35140        1.61630
H          3.87480       -0.48870        1.03160
H          2.52210       -0.95980       -0.03840
F         -0.23990        1.96710       -2.01700
H          1.44050        0.87710       -2.38210
H          1.67810        2.64600       -2.08760
F          5.12800        3.23600        2.28850
H          5.33240        2.16280        0.58040
H          4.92060        1.23010        2.06960
