21
TSA8_9_NH2_NO2_CF3
C          1.72260       -0.15760       -0.05270
C          1.42150       -1.44880       -0.35080
N          1.98950        0.84700       -1.02100
H          1.72770        0.15710        0.98610
N          1.07930       -2.35490        0.69920
C          2.82550       -3.55820       -4.24300
C          2.91860       -3.08650       -2.98960
C          2.37130       -1.74580       -2.59650
O          1.41100       -1.94150       -1.62260
C          3.36080       -4.90570       -4.64870
H          2.34380       -2.95770       -5.00980
H          3.39620       -3.67620       -2.21280
H          1.91070       -1.22660       -3.46430
H          3.22400       -1.14210       -2.21710
H          2.20510        1.80250       -0.70230
H          1.89170        0.69060       -2.03080
O          0.80790       -3.48800        0.43900
O          1.05830       -1.96480        1.95740
F          3.94510       -5.57460       -3.58590
F          2.32230       -5.67380       -5.14010
F          4.30600       -4.73690       -5.64240
