20
TSA8_9_OMe_H_NH2
C          1.42200        0.00140       -0.21330
C          0.97750        0.48620        0.94660
O          1.61550       -1.33080       -0.35840
H          1.60700        0.68090       -1.04220
H          0.80220        1.55420        1.04780
C         -1.22310       -1.73010        4.35660
C         -1.10010       -0.91690        3.29870
C          0.07550        0.00100        3.13220
O          0.73550       -0.35790        1.97680
N         -2.33110       -2.60570        4.47340
H         -0.46730       -1.73360        5.13680
H         -1.85940       -0.92330        2.52150
H          0.77840       -0.08740        3.98810
H         -0.28860        1.05190        3.08880
C          1.97530       -1.89670       -1.55890
H          2.06630       -2.99550       -1.42980
H          2.95060       -1.49010       -1.89980
H          1.19480       -1.69270       -2.32440
H         -3.05900       -2.64510        3.74440
H         -2.40600       -3.22940        5.28940
