20
TSA8_9_OMe_H_NH2
C          0.23790       -1.26170        1.14640
C          0.77840        0.19130        1.20600
O          1.21710       -2.17660        0.68790
H         -0.64860       -1.24240        0.46850
H         -0.02870        0.93400        1.00650
C         -0.22480       -1.71500        2.55260
C         -0.79620       -0.50870        3.29570
C          0.37500        0.48850        3.49760
O          1.36120        0.47410        2.46060
N         -1.18490       -2.81380        2.46150
H          0.65680       -2.06340        3.13880
H         -1.60090       -0.06130        2.67010
H          0.89690        0.16240        4.42140
H         -0.00810        1.51560        3.67660
C          1.46610       -1.99150       -0.68990
H          2.06010       -2.85430       -1.05470
H          2.06950       -1.07400       -0.86040
H          0.53130       -1.98020       -1.29380
H         -2.05190       -2.49100        1.97410
H         -1.44650       -3.12020        3.42640
