23
TSA8_9_F_CF3_Et
C          2.91780       -1.08590        0.53110
C          2.17660       -0.79660        1.81950
F          1.98750       -1.28780       -0.47280
H          3.50100       -0.19180        0.23270
C          2.32850        0.52680        2.51900
C          3.88080       -2.30880        0.62990
C          3.14920       -3.58790        1.00440
C          2.20060       -4.13390        0.23570
O          1.42000       -1.63670        2.28370
C          5.03560       -2.07640        1.63770
H          4.34630       -2.47470       -0.36720
H          3.40940       -4.10110        1.92700
H          1.71510       -5.05230        0.54910
H          1.90350       -3.68790       -0.70620
F          1.53150        0.57120        3.64960
F          3.64490        0.71090        2.89660
F          1.95180        1.54730        1.66600
C          5.98730       -0.94810        1.23120
H          5.64930       -3.00350        1.68770
H          4.63190       -1.87930        2.65440
H          6.42230       -1.15610        0.23050
H          6.81550       -0.88360        1.96810
H          5.47960        0.03530        1.20990
