23
TSA8_9_F_CF3_Et
C          3.42610       -0.94810        1.48930
C          1.88640       -1.01790        1.36140
F          3.88660        0.19240        0.85630
H          3.70170       -0.91150        2.56630
C          1.18280        0.21190        1.94590
C          4.03610       -2.20940        0.83120
C          3.34720       -3.45600        1.40910
C          1.82930       -3.30790        1.27400
O          1.39550       -2.17870        2.00100
C          5.56360       -2.34840        1.02800
H          3.81500       -2.18290       -0.26000
H          3.60020       -3.57260        2.48680
H          1.34670       -4.21100        1.70190
H          1.51630       -3.24910        0.20570
F         -0.18450        0.07130        1.79260
F          1.47350        0.33630        3.29300
F          1.58200        1.35860        1.28450
C          6.38800       -1.23930        0.37470
H          5.88470       -3.30850        0.56680
H          5.80570       -2.38860        2.11280
H          6.17130       -1.18750       -0.71330
H          7.46790       -1.45960        0.51080
H          6.19190       -0.25610        0.84470
