20
TSA8_9_CCl3_CBr3_Cl
C          0.77110        0.33930        1.25350
C          1.99860        1.30940        1.10160
C          0.96170       -1.20310        1.10530
H          0.23260        0.58190        0.30970
C          3.29260        1.25820        1.97350
C         -0.21160        0.81370        2.37020
C         -0.19260        2.34370        2.51330
C          0.26770        3.00790        1.21670
O          1.61100        2.67310        0.87150
Cl         0.00970        0.09980        3.99560
H         -1.23020        0.50750        2.05020
H          0.52350        2.66650        3.29310
H          0.21930        4.10590        1.37150
H         -0.41900        2.76750        0.37690
Cl         1.72160       -2.02450        2.49590
Cl        -0.62750       -1.98580        0.86880
Cl         1.91750       -1.56270       -0.36010
Br         4.33130       -0.35980        1.75830
Br         4.50660        2.64680        1.36000
Br         3.01610        1.57720        3.86240
