23
TSA8_9_NO2_CF3_OMe
C          2.08930        0.15090        0.05200
C          1.64930        1.11150       -0.82870
N          1.88710        0.01760        1.46290
H          2.68460       -0.65260       -0.37150
C          2.00370        0.96910       -2.29790
C          1.47120        4.16100        2.44340
C          1.66230        3.42640        1.33300
C          0.48960        2.91710        0.53970
O          0.91090        2.24060       -0.58450
O          2.48850        4.65840        3.19930
H          0.45560        4.37600        2.76220
H          2.66430        3.19140        0.98820
H         -0.09220        3.79910        0.19790
H         -0.22210        2.30770        1.12590
O          2.39970       -0.90410        2.02250
O          1.10070        0.79930        2.15550
F          0.83680        0.91500       -3.03770
F          2.72840        2.07900       -2.69200
F          2.75170       -0.16100       -2.58500
C          3.83590        4.51300        2.93800
H          4.41670        5.03030        3.72880
H          4.08710        4.97140        1.95750
H          4.11450        3.43760        2.93880
