23
TSA8_9_NO2_CF3_OMe
C          2.32210        1.78100        0.82420
C          1.30900        1.53500       -0.32580
N          2.71380        0.53510        1.45820
H          3.21350        2.28260        0.38470
C          1.84110        0.61350       -1.43140
C          1.64390        2.71480        1.86650
C          1.03630        3.95480        1.19010
C          0.15350        3.49080        0.02660
O          0.93090        2.76960       -0.90600
O          2.44750        3.05420        2.99110
H          0.77670        2.15020        2.27640
H          1.82280        4.62310        0.78450
H         -0.26780        4.38550       -0.47700
H         -0.71220        2.88730        0.38530
O          3.85890        0.19840        1.46140
O          1.80930       -0.23700        2.02360
F          0.87450        0.47400       -2.41050
F          2.98030        1.15540       -2.00000
F          2.13380       -0.64010       -0.92820
C          3.72850        3.54680        2.64820
H          4.06400        4.23100        3.45430
H          3.74880        4.14670        1.71560
H          4.45340        2.70890        2.58300
