20
TSA8_9_Cl_CF3_CHF2
C          2.73280        0.73970       -2.43490
C          1.35490        0.70940       -1.69020
Cl         4.05460        0.86360       -1.22970
H          2.90590       -0.21930       -2.96800
C          0.39850       -0.32200       -2.30280
C          2.72850        1.92380       -3.42430
C          2.48580        3.24540       -2.66720
C          1.60110        3.02100       -1.42890
O          0.68610        1.97470       -1.66240
C          3.96170        2.00330       -4.33650
H          1.85270        1.76800       -4.09130
H          3.41840        3.74220       -2.32150
H          1.06120        3.95940       -1.18760
H          2.21490        2.78810       -0.52850
F         -0.79100       -0.32150       -1.59720
F          0.13470       -0.01960       -3.62680
F          0.95340       -1.58670       -2.22540
F          5.11740        2.22420       -3.60790
F          4.09700        0.82990       -5.05680
H          3.83490        2.84140       -5.05410
