15
TSA8_9_CN_H_H
C          1.64580        0.03320        0.06980
C          1.66620       -0.22280        1.39610
C          1.75360       -0.94740       -0.98690
H          1.52770        1.06200       -0.24990
H          1.59830        0.62300        2.07040
C          2.15700       -4.81670        1.66140
C          2.03950       -3.61970        1.08280
C          1.07990       -2.58410        1.58310
O          1.76980       -1.45290        1.96790
H          2.86080       -5.53850        1.26160
H          1.55950       -5.08610        2.52710
H          2.65290       -3.38760        0.21980
H          0.50860       -2.95590        2.46320
H          0.33730       -2.35430        0.79320
N          1.83670       -1.70060       -1.86250
