15
TSA8_9_CN_H_H
C          2.57440       -1.43180        0.62010
C          1.50650       -0.70060        1.45950
C          2.11940       -1.39460       -0.77860
H          3.55500       -0.91230        0.68890
H          1.89430        0.24050        1.90410
C          2.70710       -2.88340        1.12010
C          1.32860       -3.54560        1.10740
C          0.28770       -2.62070        1.77590
O          0.90770       -1.53230        2.43950
H          3.44180       -3.48120        0.53960
H          3.06040       -2.87080        2.17770
H          1.01140       -3.74630        0.05790
H         -0.27360       -3.22480        2.51560
H         -0.45930       -2.24960        1.03450
N          1.73650       -1.38050       -1.87070
