29
TSA8_9_Me_Et_Et
C          3.01850       -0.93900        0.30940
C          1.61270       -1.20850        0.90070
C          2.83210       -0.21830       -1.03330
H          3.53500       -0.25330        1.01700
C          1.26480       -0.63580        2.28840
C          3.85200       -2.24500        0.13590
C          3.30080       -3.33070        1.05330
C          1.82460       -3.58570        0.70460
O          0.99090       -2.43880        0.57430
C          5.35980       -2.06440        0.43720
H          3.72370       -2.63830       -0.89840
H          3.42710       -3.04900        2.11230
H          1.39160       -4.27870        1.45540
H          1.81040       -4.10270       -0.27870
H          2.26800       -0.86490       -1.74100
H          3.79570        0.04510       -1.50670
H          2.25620        0.72030       -0.88520
C          1.98430       -1.30730        3.45290
H          0.16870       -0.72230        2.44500
H          1.52270        0.44540        2.29650
H          1.71410       -2.38250        3.50690
H          1.67690       -0.82480        4.40450
H          3.08410       -1.18590        3.34980
C          6.07080       -1.05100       -0.45410
H          5.86370       -3.04680        0.30380
H          5.49310       -1.75090        1.49680
H          5.96750       -1.33540       -1.52190
H          7.14970       -1.02910       -0.19240
H          5.67060       -0.03030       -0.28830
