24
TSA8_9_Et_NH2_NH2
C          1.78480        0.03880        0.18130
C          1.33520        0.16410        1.46370
C          2.05710       -1.18530       -0.66200
H          1.96760        0.96610       -0.35710
N          1.15240        1.48300        1.96030
C          3.20550       -3.16020        3.50740
C          2.69890       -2.50660        2.45150
C          1.22630       -2.20500        2.33540
O          1.01410       -0.84190        2.33470
N          4.59510       -3.41910        3.60510
H          2.55340       -3.49680        4.30890
H          3.36950       -2.17610        1.66830
H          0.69540       -2.61760        3.22010
H          0.74520       -2.68810        1.46570
C          3.49590       -1.16960       -1.17080
H          1.37660       -1.15260       -1.53970
H          1.88870       -2.14140       -0.16190
H          3.68880       -0.24790       -1.76080
H          3.66800       -2.04890       -1.82720
H          4.21190       -1.21130       -0.32390
H          0.80790        1.62520        2.92090
H          1.35860        2.31380        1.38620
H          5.24850       -3.11030        2.87020
H          4.96530       -3.91510        4.42800
