19
TSA8_9_NO2_CF3_Cl
C          2.53130        1.50500        1.07430
C          1.39650        1.74760        0.03320
N          2.45220        0.13920        1.56170
H          3.53140        1.66780        0.60970
C          1.89860        1.86130       -1.40610
C          2.40510        2.53330        2.21680
C          0.97240        2.62680        2.75700
C         -0.04980        2.54770        1.60660
O          0.56950        2.85180        0.37100
Cl         3.58760        2.26540        3.52650
H          2.62790        3.52770        1.76960
H          0.72080        1.86190        3.52290
H         -0.88340        3.25170        1.80570
H         -0.51730        1.53450        1.56520
O          3.37480       -0.60300        1.40770
O          1.36320       -0.30330        2.15490
F          0.81940        1.97350       -2.26350
F          2.70180        2.97980       -1.54120
F          2.62280        0.73270       -1.74510
