19
TSA8_9_CCl3_NH2_F
C          1.91670       -0.05990       -0.04060
C          1.25320       -1.17890        0.32660
C          2.14570        0.47120       -1.44500
H          2.33970        0.55310        0.75140
N          1.14370       -1.48470        1.71610
C         -0.18840       -5.00000       -1.93900
C         -0.49360       -3.73330       -1.64090
C         -0.08070       -3.10210       -0.34350
O          0.69650       -1.99400       -0.60790
F         -0.58270       -5.53290       -3.12490
H          0.37260       -5.61900       -1.24570
H         -1.05900       -3.14040       -2.35410
H          0.49250       -3.82530        0.27870
H         -0.99480       -2.79160        0.20650
Cl         1.46890       -0.49110       -2.79150
Cl         1.43540        2.10020       -1.54290
Cl         3.89960        0.61000       -1.71150
H          0.64400       -2.32090        2.04670
H          1.56370       -0.86870        2.42780
