23
TSA8_9_Et_F_Me
C          1.75240       -0.15420        0.17940
C          1.32950       -1.29290        0.78590
C          1.91570        0.18110       -1.28490
H          2.00940        0.66480        0.84760
F          1.27370       -1.25560        2.14390
C          2.68950       -3.53260       -2.78400
C          2.40940       -3.06420       -1.56180
C          0.98680       -2.92230       -1.09180
O          0.94290       -2.47010        0.21050
C          4.10690       -3.67880       -3.24320
H          1.88480       -3.81440       -3.45770
H          3.22100       -2.78530       -0.89400
H          0.52050       -3.92970       -1.11650
H          0.37050       -2.27790       -1.75040
C          3.36350        0.55740       -1.57980
H          1.26510        1.05310       -1.51190
H          1.63170       -0.61560       -1.97720
H          3.67750        1.41770       -0.95030
H          3.46330        0.84590       -2.64740
H          4.03300       -0.30570       -1.37960
H          4.65030       -4.37940       -2.57460
H          4.61350       -2.69030       -3.23070
H          4.12730       -4.08140       -4.27770
