23
TSA8_9_Et_F_Me
C          2.25430       -1.18260       -0.98530
C          0.83780       -1.29090       -0.35510
C          2.39320        0.23830       -1.60990
H          2.98900       -1.28530       -0.15550
F          0.60910       -0.26810        0.54940
C          2.39350       -2.38310       -1.98610
C          2.02130       -3.69050       -1.26730
C          0.64060       -3.55040       -0.63310
O          0.67160       -2.51670        0.32200
C          3.77780       -2.58490       -2.61170
H          1.66080       -2.24650       -2.81320
H          2.76400       -3.92240       -0.47140
H          0.38740       -4.50080       -0.11940
H         -0.14990       -3.37550       -1.39960
C          3.81420        0.70200       -1.94150
H          2.05420        0.97820       -0.85320
H          1.72850        0.33950       -2.49500
H          4.46170        0.62660       -1.04250
H          3.77650        1.76750       -2.25410
H          4.28070        0.16370       -2.77430
H          4.55910       -2.66940       -1.82620
H          4.02800       -1.78970       -3.32630
H          3.78090       -3.51800       -3.21620
