21
TSA8_9_Me_Me_CN
C          1.64180       -0.08490       -0.00900
C          1.44680       -1.44590       -0.02270
C          1.70960        1.00970       -1.04370
H          1.73090        0.35620        0.98050
C          1.70050       -2.13870        1.28400
C          1.98950       -2.15330       -4.54350
C          1.91110       -2.44410       -3.24680
C          0.77410       -1.99000       -2.37220
O          1.11130       -2.27580       -1.06480
C          3.12310       -2.64010       -5.27840
H          1.19680       -1.58170       -5.02850
H          2.70870       -3.03310       -2.78760
H         -0.17250       -2.49470       -2.68060
H          0.57340       -0.92930       -2.47840
H          1.54320        0.78660       -2.10230
H          2.77300        1.28590       -0.95180
H          1.15810        1.94670       -0.77130
H          2.40400       -1.54680        1.92180
H          2.21000       -3.12040        1.12720
H          0.73350       -2.27790        1.77740
N          4.02490       -3.01970       -5.89190
