21
TSA8_9_Me_Me_CN
C          2.25090       -0.80830       -1.44610
C          1.11350       -1.38990       -0.51420
C          2.07150        0.72950       -1.47300
H          3.22330       -1.05230       -0.95680
C          1.71060       -1.83640        0.83730
C          2.26420       -1.35140       -2.91060
C          1.53240       -2.67590       -3.03080
C          0.18110       -2.48610       -2.36930
O          0.36120       -2.49660       -0.98140
C          3.59610       -1.49670       -3.50600
H          1.67830       -0.67800       -3.57670
H          2.07220       -3.51560       -2.53300
H         -0.46820       -3.34200       -2.63230
H         -0.34350       -1.56050       -2.71010
H          1.28510        1.02340       -2.20750
H          3.01040        1.25090       -1.74760
H          1.72170        1.11880       -0.49230
H          2.30200       -1.03480        1.32590
H          2.37490       -2.72030        0.68450
H          0.89860       -2.15000        1.52660
N          4.63470       -1.61960       -4.00760
