21
TSA8_9_CF3_CBr3_OH
C          1.75560       -0.12230        0.04320
C          1.45780       -1.44910        0.13260
C          1.89970        0.72220       -1.20200
H          1.88930        0.45360        0.94850
C          1.24470       -2.13300        1.47810
C          3.60030       -4.37650       -2.79700
C          2.67480       -3.92070       -1.94220
C          2.29470       -2.46950       -1.92170
O          1.32400       -2.25820       -0.95710
O          3.95080       -5.68140       -2.82060
H          4.08550       -3.69330       -3.48800
H          2.19360       -4.60880       -1.25230
H          1.88980       -2.20380       -2.92060
H          3.20570       -1.86500       -1.71070
F          3.20330        1.17000       -1.29840
F          1.55360        0.07100       -2.36430
F          1.06420        1.81670       -1.08040
Br         1.38340       -1.01400        3.07040
Br        -0.52520       -2.92200        1.49980
Br         2.54380       -3.55670        1.67960
H          3.55420       -6.33590       -2.22750
