18
TSA8_9_I_F_OMe
C          2.76370       -0.92150       -1.29390
C          1.27500       -0.71330       -1.39280
I          3.48570       -0.10950        0.56380
H          2.94740       -2.01730       -1.25050
F          0.44670       -1.78850       -1.44410
C          3.52470       -0.36910       -2.52000
C          3.35650        1.13310       -2.65290
C          2.78710        1.68290       -3.73020
O          0.79930        0.41110       -1.41180
O          4.89590       -0.70000       -2.37190
H          3.09430       -0.89810       -3.40410
H          3.70990        1.78270       -1.85840
H          2.42240        1.06890       -4.54780
H          2.68270        2.76030       -3.79760
C          5.59580       -0.51600       -3.58610
H          6.56400       -1.05240       -3.51450
H          5.81820        0.56070       -3.74750
H          5.06390       -0.95120       -4.46170
