18
TSA8_9_I_F_OMe
C          2.69540       -0.59260       -1.38290
C          1.21170       -0.37080       -1.79620
I          3.27820        0.75390        0.19800
H          2.80320       -1.60370       -0.93250
F          0.64940       -1.60150       -2.08350
C          3.57870       -0.45440       -2.62680
C          3.39360        0.95410       -3.23600
C          1.97630        1.50040       -2.98470
O          1.03480        0.45240       -2.95110
O          4.92980       -0.72300       -2.29690
H          3.18600       -1.21670       -3.34090
H          4.11450        1.70080       -2.83850
H          1.71870        2.22330       -3.78480
H          1.92430        2.07370       -2.03320
C          5.71840       -0.84470       -3.46340
H          6.63410       -1.41530       -3.20640
H          6.03030        0.15900       -3.82290
H          5.21570       -1.41780       -4.27490
