17
TSA8_9_H_CHF2_Br
C          1.91290        0.28900       -0.03550
C          1.56440        1.58600        0.08140
H          2.29250       -0.29860        0.78850
H          1.80960       -0.22770       -0.98470
C          1.02090        2.32080       -1.11300
C          2.84170        4.29680        3.00860
C          3.26790        3.04810        2.79160
C          2.31240        1.95220        2.42230
O          1.66400        2.29090        1.24560
Br         4.07850        5.67660        3.47700
H          1.78830        4.54610        2.92160
H          4.32530        2.81820        2.88540
H          1.56120        1.83680        3.23220
H          2.88750        1.01160        2.34150
F         -0.24740        2.78950       -0.82600
F          1.84370        3.39360       -1.40090
H          0.96220        1.67100       -2.01270
