22
TSA8_9_CF3_NH2_CH2F
C          2.27830        1.79580        0.80180
C          1.57520        1.47570       -0.50960
C          2.34670        0.51330        1.66990
H          3.32980        2.06840        0.55940
N          2.24000        1.56450       -1.68600
C          1.63040        3.06690        1.45320
C          0.19330        2.85580        1.88620
C         -0.82200        3.52390        1.33030
O          0.40200        1.13110       -0.50810
C          2.43300        3.64930        2.63010
H          1.66580        3.85240        0.66270
H         -0.02720        2.14980        2.68000
H         -0.65500        4.24470        0.53620
H         -1.83670        3.34820        1.67280
F          3.11220        0.71070        2.80050
F          1.08600        0.08360        2.04280
F          2.94750       -0.49770        0.93910
H          1.76260        1.34600       -2.57310
H          3.22940        1.85010       -1.71790
F          2.37560        2.84900        3.75540
H          2.00550        4.63740        2.90610
H          3.49170        3.80930        2.33460
