22
TSA8_9_CF3_NH2_CH2F
C          2.08550        0.29900        0.22200
C          1.73210        1.33350       -0.60130
C          1.67320       -0.15690        1.60740
H          2.82750       -0.38230       -0.18710
N          2.35740        1.37470       -1.87840
C          1.18320        4.67230        2.09800
C          1.18580        3.37800        1.74450
C          0.19280        2.82770        0.74970
O          0.84180        2.34640       -0.36620
C          2.17940        5.21220        3.07830
H          0.45440        5.35660        1.67200
H          1.92630        2.71390        2.17840
H         -0.47850        3.64470        0.40880
H         -0.49070        2.07200        1.17050
F          2.79500       -0.16490        2.41420
F          0.70790        0.58370        2.23130
F          1.20090       -1.45220        1.50750
H          2.12730        2.13250       -2.53720
H          3.04500        0.66530       -2.17340
F          2.04110        4.57060        4.29580
H          2.00900        6.29970        3.22230
H          3.21000        5.05920        2.69400
