23
TSA8_9_CF3_Et_I
C          1.83540       -0.12910        0.06720
C          1.38280       -1.38360        0.30640
C          1.95840        0.53910       -1.28100
H          2.12980        0.48630        0.91280
C          1.25470       -1.87550        1.73130
C          4.09160       -3.78630       -0.90500
C          3.29350       -2.77850       -1.26970
C          1.81610       -2.97800       -1.52350
O          0.99330       -2.22180       -0.69360
I          6.14640       -3.44700       -0.56710
H          3.70250       -4.79120       -0.77400
H          3.71970       -1.78930       -1.39330
H          1.54150       -4.04660       -1.39260
H          1.60420       -2.71370       -2.57960
F          3.28180        0.87000       -1.50190
F          1.51340       -0.24890       -2.32290
F          1.20700        1.69880       -1.26830
C          2.11170       -3.11240        1.97730
H          0.19050       -2.12670        1.92630
H          1.55920       -1.09210        2.45960
H          1.80530       -3.94040        1.30390
H          1.98280       -3.44900        3.02770
H          3.18360       -2.87540        1.80900
