21
TSA8_9_Et_OH_F
C          2.42740        0.31520       -1.16980
C          1.14020       -0.29960       -1.69050
C          2.21710        0.74400        0.30590
H          3.19050       -0.49440       -1.18670
O          1.11640       -1.58140       -2.11660
C          2.99110        1.43760       -2.09450
C          2.25420        2.75840       -2.06350
C          1.05130        2.95580       -2.60840
O          0.09830        0.33400       -1.67940
F          4.30260        1.68430       -1.72690
H          3.04100        1.07000       -3.14290
H          2.74990        3.60980       -1.60530
H          0.52130        2.16840       -3.12620
H          0.59510        3.93940       -2.56050
C          3.47960        1.24150        1.00880
H          1.84910       -0.13870        0.87460
H          1.44030        1.53750        0.36590
H          4.27230        0.46480        0.97460
H          3.24300        1.46240        2.07100
H          3.85050        2.18050        0.55180
H          1.90820       -2.13650       -2.12850
