21
TSA8_9_Et_OH_F
C          2.52500        0.47800       -1.30050
C          1.15010       -0.00220       -1.86870
C          2.31610        1.13460        0.08960
H          3.17450       -0.41040       -1.13100
O          1.25870       -1.32280       -2.30990
C          3.17550        1.38310       -2.36360
C          2.26680        2.57260       -2.69910
C          0.78410        2.16110       -2.65530
O          0.64230        0.78810       -2.94500
F          4.44610        1.80790       -2.02460
H          3.27170        0.77090       -3.28750
H          2.40720        3.43990       -2.01860
H          0.21690        2.77010       -3.38880
H          0.32020        2.38340       -1.66940
C          3.61770        1.50740        0.79980
H          1.79190        0.39720        0.73680
H          1.68030        2.03910        0.03030
H          4.27090        0.61510        0.90390
H          3.38340        1.89330        1.81420
H          4.15950        2.30730        0.25910
H          0.64220       -1.83310       -1.72650
