17
TSA8_9_Br_CBr3_Cl
C          2.99690       -0.98080       -1.06080
C          1.63180       -1.59240       -0.81840
Br         3.07570        0.75900       -0.18470
H          3.74730       -1.62890       -0.55900
C          1.49320       -2.90840       -0.08130
C          3.43370       -0.89570       -2.54950
C          2.63850        0.05790       -3.41630
C          1.39580       -0.19300       -3.83610
O          0.62940       -0.99600       -1.18050
Cl         5.14970       -0.38650       -2.60040
H          3.40850       -1.90710       -3.01020
H          3.11000        0.97510       -3.75870
H          0.88270       -1.11200       -3.57720
H          0.88720        0.52220       -4.47450
Br         2.23580       -2.75770        1.70440
Br        -0.36480       -3.45500        0.09780
Br         2.43040       -4.31050       -1.03770
