17
TSA8_9_Br_CBr3_Cl
C          1.95720       -0.28180       -0.08450
C          1.58630       -1.41640       -0.74070
Br         2.21300        1.48690       -0.78880
H          2.12950       -0.29890        0.98160
C          1.39630       -2.73090        0.00490
C          3.75720       -1.00600       -4.43560
C          3.16780       -0.59760       -3.30660
C          1.67160       -0.65000       -3.12620
O          1.34410       -1.49670       -2.08600
Cl         5.50440       -0.93570       -4.59920
H          3.17240       -1.38880       -5.26630
H          3.78670       -0.22520       -2.49740
H          1.19730       -1.05310       -4.04630
H          1.23480        0.35420       -2.97740
Br         1.70370       -2.71510        1.93220
Br        -0.41770       -3.35470       -0.27160
Br         2.60570       -4.04470       -0.74830
