21
TSA8_9_NO2_NO2_CHF2
C          2.83940        0.70240       -1.37650
C          1.61590       -0.19570       -1.51680
N          2.93330        1.19880       -0.01070
H          3.74560        0.09400       -1.58700
N          1.73200       -1.51700       -1.83750
C          2.83680        1.84830       -2.43740
C          1.68900        2.82490       -2.26600
C          0.74400        2.98280       -3.19770
O          0.50450        0.28350       -1.33240
C          4.16360        2.63060       -2.44210
H          2.75600        1.35890       -3.43530
H          1.62920        3.43120       -1.36830
H          0.75700        2.40750       -4.11770
H         -0.05640        3.69860       -3.03870
O          3.88140        0.91800        0.65930
O          1.95670        1.90100        0.52340
O          0.75430       -2.19580       -1.93900
O          2.91150       -2.06550       -2.03730
F          4.37130        3.27690       -1.23600
F          5.22570        1.77840       -2.68980
H          4.14110        3.39270       -3.25070
