20
TSA8_9_NO2_OMe_Br
C          1.73230        0.02130       -0.14510
C          1.66190       -0.65990        1.01540
N          1.51530       -0.54320       -1.43330
H          1.97780        1.07930       -0.09090
O          1.87900        0.03500        2.16050
C          4.61070       -3.10500        1.41220
C          3.62520       -2.67830        0.61490
C          2.19220       -3.07020        0.86270
O          1.34790       -1.98600        1.06940
Br         6.41770       -2.59430        1.06870
H          4.40280       -3.74720        2.26350
H          3.86030       -2.04370       -0.23470
H          2.11620       -3.73320        1.75090
H          1.82250       -3.65270       -0.00710
O          1.64150        0.14440       -2.40260
O          1.15450       -1.79960       -1.59260
C          2.39990       -0.51420        3.31020
H          2.31330        0.22670        4.13130
H          3.47750       -0.72590        3.14500
H          1.86760       -1.44320        3.59400
