20
TSA8_9_NO2_OMe_Br
C          2.94470       -0.72780        0.32080
C          1.62260       -1.04400        1.04320
N          2.68530       -0.54040       -1.10020
H          3.37950        0.21670        0.71950
O          1.25780       -0.37480        2.23670
C          3.93220       -1.88170        0.59160
C          3.27750       -3.23770        0.31860
C          1.98030       -3.35120        1.13720
O          1.04820       -2.32410        0.83350
Br         5.57700       -1.68440       -0.42060
H          4.21170       -1.87210        1.66610
H          3.06560       -3.37960       -0.75910
H          2.20280       -3.38130        2.22080
H          1.51260       -4.32800        0.89510
O          2.95770        0.50040       -1.61860
O          2.09420       -1.47380       -1.81490
C          2.15640       -0.65330        3.28320
H          1.84520       -0.05760        4.16550
H          3.18850       -0.32270        3.04460
H          2.10810       -1.71220        3.59900
