20
TSA8_9_Cl_I_Et
C          3.04600       -1.04190       -1.34240
C          1.49920       -0.85750       -1.30570
Cl         3.81950        0.50040       -0.85480
H          3.34630       -1.79160       -0.57980
I          0.56900       -2.68190       -0.67500
C          3.43320       -1.50620       -2.76220
C          2.99950       -0.45100       -3.80060
C          1.74630        0.31070       -3.33130
O          0.90590       -0.52340       -2.56440
C          4.88250       -2.01590       -2.96060
H          2.79800       -2.40030       -2.95560
H          3.77220        0.30980       -4.03250
H          1.20020        0.69140       -4.21880
H          2.01420        1.21230       -2.73730
C          6.00470       -0.99760       -2.74850
H          4.96790       -2.40530       -3.99870
H          5.05750       -2.86720       -2.26700
H          5.90180       -0.12990       -3.42990
H          6.97870       -1.48600       -2.96290
H          6.04030       -0.65310       -1.69800
