26
TSA8_9_CCl3_CCl3_Et
C          2.84180        0.15630       -1.85120
C          1.50870       -0.43970       -2.33230
C          2.68560        0.83050       -0.43800
H          3.55100       -0.68120       -1.69260
C          1.29650       -1.93590       -2.56360
C          3.50450        1.12760       -2.91110
C          2.61750        2.30400       -3.27230
C          2.97610        3.56720       -3.01790
O          0.56390        0.31360       -2.51440
C          3.92360        0.43740       -4.22950
H          4.44700        1.52290       -2.47530
H          1.66860        2.12930       -3.76810
H          2.31830        4.38340       -3.29750
H          3.91770        3.79870       -2.52960
Cl         1.53270        2.19750       -0.39500
Cl         2.11570       -0.33670        0.78240
Cl         4.25780        1.42750        0.16710
Cl         2.33600       -2.56360       -3.85960
Cl         1.62630       -2.88480       -1.09500
Cl        -0.39080       -2.28340       -3.04550
C          5.06180       -0.57310       -4.05170
H          4.31210        1.21400       -4.92660
H          3.04650       -0.03470       -4.71690
H          5.95460       -0.07080       -3.62250
H          5.33780       -0.99240       -5.04210
H          4.78070       -1.41390       -3.39110
