26
TSA8_9_CCl3_CCl3_Et
C          1.60630       -0.01510       -0.06710
C          1.40690       -0.22440       -1.40630
C          1.81950        1.28970        0.67790
H          1.55560       -0.87250        0.58740
C          1.12530       -1.61390       -1.96350
C          4.29910        1.21940       -4.01490
C          2.99050        1.47840       -3.89600
C          2.36440        1.73280       -2.55750
O          1.41040        0.76000       -2.35030
C          4.93570        0.91100       -5.33940
H          4.93360        1.21390       -3.13230
H          2.34890        1.47980       -4.77510
H          1.88750        2.73440       -2.55980
H          3.14230        1.70140       -1.77850
Cl         0.85840        2.65190        0.04230
Cl         1.27120        1.06010        2.35950
Cl         3.55200        1.70100        0.77540
Cl         2.35180       -1.99660       -3.19600
Cl         1.12590       -2.96230       -0.78560
Cl        -0.47260       -1.59930       -2.75380
C          5.57030       -0.47550       -5.29580
H          5.72030        1.66890       -5.54790
H          4.18820        0.94020       -6.16250
H          6.34250       -0.52130       -4.49770
H          6.05240       -0.69800       -6.27030
H          4.79620       -1.24710       -5.09520
