18
TSA8_9_CF3_OH_I
C          1.76410       -1.63530        0.86060
C          0.95770       -0.38790        1.27610
C          1.59650       -1.86840       -0.66320
H          2.84610       -1.43870        1.02770
O          1.33810        0.09650        2.53400
C          1.33050       -2.80500        1.78400
C         -0.18920       -2.97050        1.77780
C         -0.84120       -1.62200        2.11460
O         -0.44550       -0.60420        1.20620
I          2.30480       -4.68060        1.41460
H          1.62090       -2.53930        2.82460
H         -0.54610       -3.33900        0.79570
H         -0.61570       -1.32560        3.16320
H         -1.94260       -1.74310        2.05510
F          2.36240       -2.93720       -1.08610
F          0.27990       -2.09400       -1.01880
F          2.03570       -0.74420       -1.34080
H          1.70780        0.99730        2.35290
