22
TSA8_9_CN_Me_OMe
C          2.59800       -1.28050        0.32900
C          1.83850       -0.61500        1.52700
C          1.89050       -1.00830       -0.94630
H          3.59970       -0.80430        0.29650
C          1.70190        0.86770        1.74800
C          2.79110       -2.86130        0.37940
C          2.41810       -3.51950        1.69850
C          1.13270       -3.89400        1.88760
O          1.35230       -1.27880        2.42490
O          3.92140       -3.37810       -0.32950
H          1.97960       -3.25600       -0.26580
H          3.10380       -3.55910        2.53770
H          0.77430       -4.25120        2.84230
H          0.39420       -3.77200        1.09220
N          1.28180       -0.82920       -1.91530
H          2.20080        1.11500        2.71520
H          0.62670        1.13150        1.87780
H          2.14780        1.48770        0.95030
C          5.14420       -3.46780        0.38410
H          5.51310       -4.52020        0.34480
H          5.10760       -3.15620        1.44680
H          5.91060       -2.85820       -0.14310
