20
TSA8_9_I_CBr3_CBr3
C          2.21880        0.50490       -2.44180
C          0.96140       -0.26280       -2.79320
I          1.96410        1.09320       -0.37770
H          3.09580       -0.17630       -2.47110
C          0.96960       -1.77140       -2.98920
C          2.48850        1.77110       -3.32350
C          3.71150        2.47980       -2.76500
C          3.65270        3.71910       -2.26550
O         -0.09880        0.34510       -2.84410
C          2.71200        1.52550       -4.85000
H          1.60380        2.44030       -3.22910
H          4.66900        1.96690       -2.76730
H          2.71900        4.27190       -2.24040
H          4.55000        4.18830       -1.87560
Br         1.55790       -2.64060       -1.35960
Br        -0.80520       -2.45260       -3.40110
Br         2.14530       -2.33740       -4.41840
Br         3.05670        3.21710       -5.75180
Br         4.23800        0.37300       -5.21090
Br         1.15260        0.80950       -5.76170
