20
TSA8_9_I_CBr3_CBr3
C          2.63210        0.26870       -3.31230
C          1.33550        0.23880       -2.46200
I          4.37280       -0.19240       -2.11320
H          2.57030       -0.49910       -4.10760
C          0.79140       -1.10760       -1.93760
C          2.64070        1.67370       -3.99050
C          2.53330        2.76410       -2.90870
C          1.30620        2.48350       -2.02550
O          1.40220        1.20400       -1.43200
C          3.76740        1.97220       -5.02350
H          1.69910        1.71910       -4.58600
H          3.44800        2.77710       -2.27870
H          0.36150        2.58100       -2.60800
H          1.26670        3.24790       -1.22180
Br         1.78590       -1.83630       -0.43800
Br        -1.02170       -0.81670       -1.32020
Br         0.69960       -2.44200       -3.34330
Br         3.36550        3.64320       -5.93220
Br         5.55590        2.18500       -4.29110
Br         3.83230        0.60280       -6.39960
