19
TSA8_9_CBr3_NO2_I
C          1.52600       -1.42510        0.97750
C          2.81970       -1.20140        1.78500
C          1.61750       -1.00150       -0.53830
H          0.82960       -0.67120        1.40960
N          4.01980       -1.80280        1.53090
C          0.85810       -2.80470        1.33790
C         -0.56150       -2.95520        0.84360
C         -1.55020       -2.14820        1.24400
O          2.75520       -0.40930        2.71740
I          1.90800       -4.61470        0.81630
H          0.80520       -2.86430        2.44790
H         -0.80470       -3.76040        0.15650
H         -1.37000       -1.33760        1.94180
H         -2.55700       -2.30210        0.86920
Br        -0.13380       -0.64950       -1.30410
Br         2.56120        0.69240       -0.70640
Br         2.46280       -2.24940       -1.76230
O          4.96460       -1.55490        2.22080
O          4.18310       -2.62430        0.52320
