19
TSA8_9_CBr3_NO2_I
C          1.24130       -1.47070        0.29850
C          1.81670       -0.70370        1.54840
C          2.13590       -1.29350       -0.97410
H          0.27820       -0.97970        0.04110
N          3.19270       -1.04320        1.85150
C          0.93540       -2.92420        0.76020
C          0.03860       -2.90440        2.01610
C         -0.16200       -1.49590        2.60020
O          1.05710       -0.79690        2.75370
I          0.09230       -4.32350       -0.64420
H          1.88980       -3.39970        1.05580
H         -0.97430       -3.31560        1.81390
H         -0.64260       -1.60100        3.59400
H         -0.85970       -0.89510        1.97830
Br         1.20720       -1.76550       -2.61360
Br         2.58830        0.58310       -1.22420
Br         3.79140       -2.31500       -0.92850
O          3.46580       -2.08310        2.36860
O          4.12800       -0.12990        1.70460
