21
TSA8_9_CN_CBr3_Me
C          2.90440       -0.45450        1.40530
C          1.53530        0.28800        1.62120
C          2.60880       -1.46660        0.36180
H          3.67490        0.22580        0.98360
C          1.54670        1.82960        1.49190
C          3.31570       -1.05420        2.80140
C          2.24070       -2.05620        3.20130
C          0.84400       -1.47420        3.00020
O          0.88710       -0.06910        2.84360
C          4.67850       -1.70470        3.12000
H          3.29100       -0.18920        3.49830
H          2.33790       -2.99150        2.59670
H          0.29040       -1.71950        3.92670
H          0.31030       -1.94980        2.14770
N          2.33130       -2.27780       -0.41560
Br         2.20290        2.43090       -0.23220
Br        -0.27720        2.48190        1.64220
Br         2.59170        2.68450        2.88840
H          5.53420       -1.01160        2.99180
H          4.86070       -2.66160        2.59260
H          4.66030       -1.94990        4.21330
