22
TSA8_9_CH2F_NH2_CBr3
C          2.72230       -1.27510       -1.05160
C          1.39930       -1.69350       -0.31700
C          2.61040        0.20590       -1.46080
H          3.55730       -1.31970       -0.31850
N          1.69810       -2.27040        0.98940
C          2.97960       -2.29320       -2.20450
C          1.75770       -2.34650       -3.14810
C          0.44470       -2.15860       -2.37480
O          0.59530       -2.61520       -1.05120
C          4.32350       -2.23590       -2.98640
H          3.00580       -3.27390       -1.67660
H          1.77810       -1.60040       -3.97040
H         -0.36370       -2.71970       -2.88680
H          0.11700       -1.09400       -2.37470
F          3.83170        0.70820       -1.85980
H          2.30400        0.80260       -0.57460
H          1.85780        0.36800       -2.25750
H          0.79650       -2.52340        1.45210
H          2.15070       -1.53690        1.58030
Br         4.49120       -3.83800       -4.07600
Br         4.50680       -0.73910       -4.21600
Br         5.83950       -2.23740       -1.77250
