17
TSA8_9_Cl_I_CHF2
C          2.00770       -0.40290       -0.03020
C          1.32340       -1.38590       -0.65480
Cl         2.94640        0.87970       -0.78570
H          1.97770       -0.36940        1.05380
I          0.26260       -2.74940        0.56130
C          3.73450       -2.80930       -2.94590
C          3.41790       -1.50590       -2.93800
C          1.98500       -1.05670       -3.03250
O          1.23660       -1.59370       -2.00180
C          5.15630       -3.27100       -2.84390
H          2.94880       -3.55670       -3.02340
H          4.20210       -0.75820       -2.86240
H          1.56990       -1.42580       -3.99380
H          1.89880        0.04790       -3.04970
F          5.89190       -2.77760       -3.90580
F          5.70990       -2.83310       -1.65470
H          5.18760       -4.38060       -2.86810
