17
TSA8_9_Cl_I_CHF2
C          3.05170       -1.36560       -0.97770
C          1.50310       -1.20150       -1.00910
Cl         3.84130        0.23520       -1.15330
H          3.36000       -1.73890        0.02220
I          0.60230       -2.66780        0.26850
C          3.45330       -2.35240       -2.09050
C          2.99220       -1.81950       -3.46280
C          1.74530       -0.92650       -3.33220
O          0.90470       -1.38190       -2.29600
C          4.94180       -2.73730       -2.09900
H          2.88020       -3.28620       -1.89530
H          3.76600       -1.22210       -3.99230
H          1.19710       -0.92600       -4.29660
H          2.02050        0.13510       -3.14590
F          5.74630       -1.64300       -2.36220
F          5.29990       -3.27980       -0.87770
H          5.12010       -3.50040       -2.88630
