19
TSA8_9_Cl_CH2F_NO2
C          2.93530        1.05410        1.63050
C          1.43060        1.11410        1.50250
Cl         3.58660        0.01700        0.32350
H          3.30970        2.08620        1.44980
C          0.75830        2.43710        1.26040
C          3.47420        0.64520        3.03750
C          3.26330       -0.81170        3.41860
C          2.07530       -1.34030        3.72330
O          0.75870        0.09580        1.54510
N          4.89680        0.94410        3.10920
H          2.96880        1.27880        3.80180
H          4.13140       -1.46170        3.49560
H          1.16940       -0.74990        3.72570
H          2.00990       -2.38610        4.00660
F         -0.61320        2.28420        1.15490
H          1.14420        2.88140        0.31870
H          0.98020        3.12550        2.10270
O          5.67970        0.38220        2.40290
O          5.33410        1.83770        3.97120
