18
TSA8_9_H_NO2_NO2
C          2.98910        0.64510       -0.58370
C          1.64850        0.27340       -1.18650
H          2.82690        1.07340        0.43110
H          3.59350       -0.28030       -0.46720
N          1.54880       -0.37460       -2.38010
C          3.76460        1.67550       -1.43240
C          2.98170        2.96440       -1.55250
C          2.58370        3.44630       -2.73370
O          0.63200        0.55400       -0.56720
N          5.05410        1.94770       -0.82510
H          3.94050        1.24790       -2.44350
H          2.73340        3.51650       -0.65010
H          2.80920        2.92580       -3.65920
H          2.02310        4.37430       -2.77840
O          2.52610       -0.69250       -2.98770
O          0.36430       -0.68300       -2.86500
O          5.12410        2.41090        0.27420
O          6.16020        1.68310       -1.48680
