18
TSA8_9_H_NO2_NO2
C          1.57000       -0.03680        0.02980
C          1.53170        0.45670       -1.21680
H          1.44260        0.62390        0.88190
H          1.73420       -1.09220        0.22070
N          1.69560       -0.40300       -2.35270
C          4.55520        2.49840       -2.17890
C          3.42170        2.82070       -1.53420
C          2.06190        2.64370       -2.15130
O          1.31320        1.79290       -1.35980
N          5.83780        2.66350       -1.57860
H          4.50000        2.09470       -3.18680
H          3.46360        3.21900       -0.52470
H          2.11740        2.28980       -3.19920
H          1.56870        3.63750       -2.16790
O          1.90520       -1.56990       -2.20530
O          1.49280        0.05330       -3.56890
O          5.94970        3.10180       -0.47210
O          6.91380        2.32190       -2.25010
