23
TSA8_9_CF3_CHF2_CH2F
C          2.59960        0.50730       -1.63780
C          1.50190       -0.50630       -1.35970
C          2.75220        1.44530       -0.41320
H          3.55450       -0.05880       -1.72350
C          1.83420       -1.96940       -1.26390
C          2.35520        1.18360       -3.03130
C          1.09700        2.02730       -3.07880
C          0.06390        1.71840       -3.86870
O          0.34660       -0.13690       -1.20410
C          3.54330        2.01750       -3.54260
H          2.26100        0.34060       -3.75470
H          1.02720        2.91830       -2.46370
H          0.08530        0.84060       -4.50690
H         -0.81750        2.35130       -3.87840
F          3.84400        2.27790       -0.55060
F          1.61790        2.21050       -0.21380
F          2.96090        0.68000        0.72170
F          0.69910       -2.71390       -0.99360
F          2.38250       -2.40080       -2.45750
H          2.56890       -2.12760       -0.44670
F          3.71290        3.18790       -2.82730
H          3.35710        2.30210       -4.60080
H          4.47770        1.41800       -3.51260
