21
TSA8_9_OMe_F_CCl3
C          0.15080        0.39970        1.02740
C          1.00150        0.84780       -0.13960
O          0.98460        0.03060        2.11360
H         -0.46730       -0.45700        0.66910
F          0.91350        0.19480       -1.32700
C         -0.85140        1.51100        1.46770
C         -0.11040        2.74890        1.94210
C         -0.22850        3.92630        1.31960
O          1.78810        1.77490       -0.02280
C         -1.86080        1.04280        2.56000
H         -1.45910        1.76650        0.56900
H          0.53620        2.68120        2.81210
H          0.31680        4.79020        1.68560
H         -0.86280        4.03990        0.44590
C          1.41700       -1.30650        1.97760
H          2.03420       -1.56520        2.86190
H          2.05950       -1.43080        1.07820
H          0.55880       -2.01450        1.96820
Cl        -1.07530        0.61490        4.10980
Cl        -3.03990        2.34220        2.89850
Cl        -2.80420       -0.37010        2.00870
