21
TSA8_9_OMe_F_CCl3
C          1.70960       -0.05070       -0.08800
C          1.41340        1.22900       -0.31670
O          1.68130       -0.51570        1.18260
H          1.93060       -0.71460       -0.92060
F          1.35890        1.70720       -1.58780
C         -2.02720        2.55450        2.38790
C         -0.79310        2.16910        2.04230
C         -0.08780        2.70360        0.83200
O          1.10460        2.02130        0.73270
C         -2.70970        1.96920        3.59810
H         -2.54730        3.28760        1.77770
H         -0.28410        1.42020        2.64710
H          0.09760        3.79290        0.93270
H         -0.72560        2.52350       -0.06480
C          1.73750       -1.85550        1.48840
H          1.68340       -1.97570        2.58970
H          2.68030       -2.30080        1.11340
H          0.86410       -2.37780        1.03640
Cl        -1.78770        2.35160        5.07680
Cl        -4.34830        2.64430        3.76210
Cl        -2.84630        0.19580        3.43890
