14
TSA8_9_Cl_F_F
C          1.64210        0.39420       -1.87950
C          0.37710       -0.41110       -1.99500
Cl         1.40300        1.60160       -0.58310
H          2.46490       -0.28690       -1.57060
F          0.39980       -1.74730       -1.74730
C          2.00520        1.02050       -3.24660
C          3.32570        1.75710       -3.25080
C          3.53250        2.90720       -2.60130
O         -0.67460        0.12490       -2.30900
F          2.09970       -0.00460       -4.17460
H          1.20300        1.71180       -3.58580
H          4.14360        1.34880       -3.83810
H          2.75120        3.38930       -2.02750
H          4.50130        3.39250       -2.65910
