14
TSA8_9_Cl_F_F
C          2.10120       -0.08930       -1.78020
C          0.79990        0.69270       -1.44490
Cl         3.42430        0.33240       -0.64800
H          1.92300       -1.17780       -1.64120
F         -0.28070       -0.09810       -1.79410
C          2.48150        0.21840       -3.22790
C          2.70070        1.72680       -3.42150
C          1.88400        2.55170       -2.40950
O          0.64460        1.93730       -2.13450
F          3.60030       -0.49140       -3.62750
H          1.62420       -0.08790       -3.86630
H          3.76580        2.02380       -3.30660
H          1.72240        3.56940       -2.82080
H          2.44020        2.70040       -1.45840
