16
TSA8_9_H_NH2_H
C          2.80080        0.59750       -1.52080
C          1.29480        0.63210       -1.63260
H          3.08080        0.25790       -0.50040
H          3.18820       -0.15900       -2.23740
N          0.65710       -0.11000       -2.56970
C          3.52760        1.91690       -1.85330
C          3.29640        3.05480       -0.88950
C          2.16030        3.75520       -0.83710
O          0.63770        1.29960       -0.84950
H          4.61250        1.67970       -1.80280
H          3.30790        2.24480       -2.89250
H          4.11240        3.34840       -0.23500
H          1.32960        3.53990       -1.49840
H          2.06540        4.57720       -0.13480
H         -0.37190       -0.09850       -2.63350
H          1.18420       -0.69600       -3.23310
