16
TSA8_9_H_NH2_H
C          2.27780        0.13120       -0.48220
C          1.48300        0.66600       -1.42790
H          2.83880        0.74270        0.21410
H          2.37280       -0.94630       -0.38850
N          0.76920       -0.19310       -2.30140
C          3.78600        3.17610       -2.72190
C          3.48150        3.01020       -1.43100
C          2.05260        3.01640       -0.96140
O          1.32690        2.01310       -1.58100
H          4.82310        3.16900       -3.04240
H          3.00750        3.31960       -3.46420
H          4.27940        2.86980       -0.70850
H          1.60110        3.99670       -1.22300
H          1.99930        2.90460        0.14290
H          0.16270        0.20620       -3.03210
H          0.85040       -1.21840       -2.22870
