24
TSA8_9_Et_CCl3_OH
C          2.55010       -1.61800       -0.08860
C          1.28840       -1.97670        0.68420
C          2.25550       -0.39570       -0.99170
H          3.32010       -1.28210        0.64170
C          1.22480       -1.83110        2.19180
C          3.14450       -2.87190       -0.80940
C          2.22460       -3.54010       -1.81560
C          1.86890       -2.99180       -2.98090
O          0.30440       -2.36720        0.07100
O          3.47250       -3.81600        0.17840
H          4.08540       -2.57390       -1.32510
H          1.85680       -4.53840       -1.59390
H          1.21860       -3.53860       -3.65580
H          2.22550       -2.01880       -3.29090
C          3.49920        0.15180       -1.69450
H          1.86030        0.42270       -0.35040
H          1.46640       -0.62520       -1.73460
H          4.26990        0.43300       -0.94540
H          3.22470        1.05770       -2.27490
H          3.92900       -0.58690       -2.39950
Cl         2.45050       -2.86220        2.97210
Cl         1.52310       -0.13550        2.65230
Cl        -0.37530       -2.30080        2.83500
H          4.16770       -4.41360       -0.20470
