26
TSA8_9_CH2F_Et_Me
C          2.82140       -1.12820       -0.84640
C          1.47380       -1.53780       -0.27710
C          2.97450        0.40230       -0.72340
H          3.60810       -1.58540       -0.20810
C          1.38170       -2.42310        0.94030
C          2.99350       -1.70060       -2.28980
C          2.06650       -1.04150       -3.29050
C          1.12170       -1.72270       -3.94520
O          0.44310       -1.13000       -0.79470
C          4.43620       -1.59610       -2.80000
H          2.77480       -2.79230       -2.22980
H          2.17420        0.01990       -3.49300
H          0.97700       -2.78530       -3.78040
H          0.48340       -1.21060       -4.65770
F          4.23680        0.82080       -1.09730
H          2.82710        0.70010        0.33730
H          2.21420        0.93570       -1.33110
C          1.99400       -3.80030        0.69080
H          0.31450       -2.56300        1.22110
H          1.90350       -1.93110        1.78870
H          1.46840       -4.30870       -0.14460
H          1.89250       -4.42090        1.60700
H          3.07330       -3.72250        0.44660
H          4.75470       -0.54460       -2.94210
H          4.52310       -2.10810       -3.78300
H          5.12970       -2.09700       -2.09160
