26
TSA8_9_CH2F_Et_Me
C          2.78660       -1.12440       -1.02690
C          1.33660       -1.59880       -0.66530
C          2.79740        0.41240       -1.14300
H          3.48420       -1.37270       -0.19650
C          1.25490       -2.38840        0.65010
C          3.23530       -1.87260       -2.30850
C          2.22440       -1.65660       -3.45040
C          0.78610       -1.59780       -2.91020
O          0.68790       -2.32640       -1.70700
C          4.66740       -1.58220       -2.76670
H          3.19920       -2.95490       -2.05190
H          2.40740       -0.73810       -4.04950
H          0.09060       -2.00940       -3.67020
H          0.45710       -0.54600       -2.74460
F          4.08230        0.89120       -1.31610
H          2.40640        0.85090       -0.20010
H          2.16190        0.77160       -1.97640
C          1.96210       -3.74320        0.57800
H          0.18360       -2.56120        0.88840
H          1.69460       -1.78290        1.47150
H          1.51520       -4.37250       -0.22030
H          1.84840       -4.27090        1.54810
H          3.04580       -3.61730        0.37700
H          4.78130       -0.53230       -3.10350
H          4.92730       -2.24220       -3.62180
H          5.38010       -1.78420       -1.93920
