18
TSA8_9_CBr3_CN_I
C          1.79560        0.06380        0.07450
C          1.48280        0.75770        1.21500
C          1.84380       -1.39160       -0.37890
H          2.12980        0.69620       -0.74190
C          1.74690        2.18430        1.16750
C          0.49060       -1.83550        4.99610
C          0.94490       -1.59970        3.76150
C          0.20630       -0.72500        2.78430
O          1.01800        0.32740        2.42210
I          1.60270       -3.05310        6.31370
H         -0.44860       -1.41630        5.34230
H          1.88790       -2.03870        3.45880
H         -0.71080       -0.31290        3.25960
H         -0.15500       -1.28640        1.90840
Br         0.71500       -1.60630       -1.94360
Br         3.66600       -1.67070       -0.97330
Br         1.50470       -2.89230        0.78800
N          1.95990        3.31490        1.12910
