18
TSA8_9_CHF2_H_CN
C          1.17970        1.62820        1.11040
C          1.64310        1.73130       -0.35680
C          1.98330        0.59370        1.92110
H          0.14490        1.22330        1.05720
H          1.72770        0.71150       -0.78970
C          1.03340        3.05090        1.73690
C          0.68570        4.09250        0.66000
C         -0.06740        3.41550       -0.48670
O          0.75370        2.48300       -1.18840
C          2.16630        3.54760        2.53660
H          0.18430        2.97540        2.44970
H          1.60930        4.51780        0.20050
H         -0.38660        4.20330       -1.19910
H         -0.98690        2.91590       -0.11040
F          3.34470        0.74810        1.72750
F          1.69360        0.68760        3.27030
H          1.70210       -0.42530        1.57270
N          3.03240        3.97370        3.17550
