15
TSA8_9_Br_Br_OH
C          2.33230        0.79570       -1.93520
C          0.96790        1.18410       -1.29210
Br         3.73340        0.66410       -0.58310
H          2.26640       -0.22330       -2.37420
Br        -0.46870        0.31970       -2.27250
C          2.67090        1.83240       -3.00900
C          2.75360        3.23850       -2.38730
C          1.84150        3.36370       -1.15280
O          0.67580        2.58450       -1.30460
O          3.86590        1.50470       -3.66750
H          1.82220        1.81370       -3.73300
H          3.78230        3.51190       -2.06590
H          1.57270        4.43010       -1.00750
H          2.36830        3.06040       -0.22170
H          3.84530        1.97280       -4.54270
