24
TSA8_9_CF3_OMe_Me
C          2.06370       -0.04530       -0.04990
C          1.91400       -0.77460        1.09300
C          1.85730       -0.31370       -1.52680
H          2.40340        0.97640        0.11060
O          2.19890       -0.10460        2.24080
C          3.38130       -4.66660        0.08630
C          2.78460       -3.49570       -0.17990
C          1.42470       -3.15520        0.37560
O          1.52130       -2.08070        1.23130
C          4.74370       -4.97630       -0.45110
H          2.88610       -5.40820        0.70730
H          3.30100       -2.76590       -0.79550
H          1.04110       -4.01110        0.97110
H          0.65260       -2.99340       -0.39370
F          3.06440       -0.13190       -2.17510
F          1.38110       -1.55230       -1.85640
F          0.95960        0.61900       -2.01190
C          2.18540       -0.68670        3.49080
H          2.45900        0.07410        4.24970
H          2.92650       -1.51420        3.53240
H          1.17220       -1.07920        3.72190
H          5.47440       -4.22720       -0.07840
H          4.72850       -4.95670       -1.56090
H          5.06000       -5.98460       -0.11100
