23
TSA8_9_Et_CF3_I
C          2.53430       -0.20040       -1.31980
C          1.12420       -0.86870       -1.51970
C          2.33970        1.07390       -0.45190
H          3.19190       -0.88360       -0.73740
C          1.11090       -2.33970       -1.09190
C          3.15260       -0.00050       -2.72460
C          2.24030        0.85750       -3.60930
C          0.75970        0.54790       -3.32640
O          0.62090       -0.77400       -2.85350
I          5.20850        0.59750       -2.86910
H          3.17600       -1.01150       -3.18760
H          2.40430        1.94970       -3.49280
H          0.17290        0.68870       -4.25680
H          0.32120        1.25900       -2.59150
C          3.62790        1.73920        0.02540
H          1.79480        0.76520        0.46780
H          1.72030        1.83310       -0.96730
H          4.26480        1.00800        0.56710
H          3.37350        2.56740        0.72040
H          4.18590        2.18790       -0.81370
F         -0.16770       -2.84740       -1.23080
F          1.97710       -3.07640       -1.88020
F          1.48870       -2.45260        0.23370
