17
TSA8_9_Br_CF3_Br
C          2.04200       -0.33130        0.04600
C          1.51120       -1.58120        0.12070
Br         2.76930        0.57140       -1.48490
H          2.06620        0.29210        0.93290
C          0.95640       -2.08810        1.43270
C          4.16490       -3.87960       -2.32140
C          3.55740       -2.77180       -1.88240
C          2.09050       -2.52020       -2.12260
O          1.41800       -2.46670       -0.91760
Br         6.02160       -4.16610       -1.97020
H          3.61760       -4.63720       -2.87340
H          4.13440       -2.04030       -1.32680
H          1.65590       -3.35660       -2.71080
H          1.91920       -1.60890       -2.72330
F         -0.37680       -2.41270        1.26760
F          1.64970       -3.22630        1.79950
F          1.06090       -1.16120        2.45670
