17
TSA8_9_CHF2_I_I
C          1.64350       -0.49810       -1.73980
C          0.88890       -1.05650       -0.55420
C          1.71570        1.04300       -1.62850
H          2.68670       -0.87700       -1.67290
I          1.86680       -2.31900        0.82680
C          1.05580       -1.05560       -3.06950
C         -0.36050       -0.61140       -3.34850
C         -1.37250       -1.48220       -3.41780
O         -0.28830       -0.78610       -0.37380
I          2.26370       -0.58470       -4.78060
H          1.09420       -2.16590       -2.99920
H         -0.56990        0.44070       -3.50850
H         -1.21190       -2.54560       -3.26940
H         -2.37770       -1.12980       -3.62470
F          2.49200        1.58810       -2.63270
F          0.46050        1.62370       -1.65670
H          2.19130        1.30980       -0.66020
