17
TSA8_9_CHF2_I_I
C          1.72620       -0.44440       -1.98080
C          0.97720       -1.20920       -0.87210
C          1.60120        1.07140       -1.70370
H          2.80730       -0.69820       -1.93570
I          1.51910       -3.28580       -0.66060
C          1.14800       -0.90630       -3.34120
C         -0.37020       -0.72940       -3.35490
C         -0.96900       -1.45840       -2.14400
O         -0.42580       -0.98840       -0.91900
I          2.03720        0.00080       -5.07070
H          1.35760       -1.99180       -3.45840
H         -0.63970        0.34680       -3.32540
H         -0.83740       -2.55730       -2.24220
H         -2.06350       -1.27630       -2.13800
F          2.12420        1.35550       -0.45410
F          2.30490        1.81010       -2.63520
H          0.54310        1.40250       -1.71240
