19
TSA8_9_H_OMe_OH
C          3.07920       -0.34160       -1.59840
C          1.57690       -0.53080       -1.69500
H          3.33400       -0.06970       -0.55050
H          3.59140       -1.30150       -1.80640
O          1.00120       -1.67310       -2.15940
C          3.69240        0.68170       -2.58210
C          3.20270        2.10530       -2.42360
C          1.98040        2.50340       -2.79040
O          0.84350        0.35540       -1.28890
O          5.08210        0.66950       -2.37360
H          3.47690        0.33760       -3.62230
H          3.89010        2.85560       -2.04290
H          1.26670        1.81290       -3.22530
H          1.69370        3.54370       -2.67710
C          1.66940       -2.76020       -2.68110
H          0.92790       -3.52200       -2.99680
H          2.33210       -3.21490       -1.91530
H          2.26080       -2.45230       -3.57050
H          5.51140        0.89900       -3.23950
