15
TSA8_9_F_F_CN
C          1.48770        0.51730        1.92840
C          2.17850        1.61970        1.16170
F          2.31930       -0.54780        2.22070
H          0.79330        0.11470        1.16020
F          1.93320        1.75180       -0.17060
C          0.67560        1.03210        3.16440
C         -0.75960        0.84500        2.79720
C         -1.38700        1.80400        2.12320
O          2.92390        2.41250        1.71430
C          0.91960        0.36940        4.47070
H          0.88890        2.11390        3.33740
H         -1.22480       -0.13460        2.90670
H         -0.88500        2.74820        1.93200
H         -2.37450        1.62550        1.72280
N          1.06890       -0.11050        5.51740
