15
TSA8_9_F_F_CN
C          1.60540        0.40480        2.12930
C          1.15590        1.26960        0.92720
F          1.14390       -0.88410        1.91020
H          2.71320        0.36720        2.20650
F          2.23660        1.59600        0.12630
C          0.99610        0.98900        3.42050
C         -0.50290        1.16250        3.19150
C         -0.72510        2.09250        1.97950
O          0.48590        2.44800        1.32750
C          1.24610        0.19350        4.62840
H          1.44670        1.98970        3.60360
H         -0.95410        0.16400        2.98760
H         -1.17120        3.02340        2.38440
H         -1.46060        1.66350        1.26340
N          1.42070       -0.40430        5.60400
