27
TSA8_9_OMe_CCl3_Et
C          2.86710        0.61670        1.32920
C          1.46000        1.25060        1.00770
O          2.71470       -0.74570        1.68700
H          3.57060        0.72040        0.47010
C          1.43540        2.15220       -0.24390
C          3.47250        1.38270        2.52740
C          2.53070        1.28820        3.74840
C          1.06250        1.21210        3.29950
O          0.88070        1.94980        2.11200
C          4.94580        1.04660        2.86320
H          3.48310        2.45410        2.23470
H          2.71280        0.41640        4.40820
H          0.40740        1.60440        4.10330
H          0.74850        0.15300        3.13970
C          2.39360       -1.52640        0.55620
H          2.47010       -2.59590        0.84030
H          3.11000       -1.37140       -0.28060
H          1.34530       -1.34420        0.23410
Cl         2.46390        3.59710       -0.05110
Cl         1.96690        1.25310       -1.69090
Cl        -0.23520        2.69430       -0.54710
C          5.22700       -0.39960        3.28190
H          5.27720        1.71700        3.68580
H          5.57200        1.27170        1.97220
H          4.65690       -0.67940        4.18970
H          6.30800       -0.50360        3.51420
H          4.99570       -1.10670        2.46160
