26
TSA8_9_Et_CF3_CHF2
C          2.43520        1.48560        0.90250
C          1.13570        1.75910        0.05560
C          2.33690        0.04020        1.46160
H          3.31040        1.50090        0.21490
C          1.43650        2.09450       -1.40770
C          2.57630        2.64910        1.93320
C          1.29840        2.79200        2.78480
C          0.04710        2.46710        1.95900
O          0.28490        2.76280        0.60270
C          3.83000        2.70820        2.81920
H          2.63360        3.56100        1.29540
H          1.28260        2.15280        3.69450
H         -0.81190        3.05660        2.34000
H         -0.24660        1.39730        2.07350
C          3.67580       -0.59920        1.84050
H          1.95230       -0.61020        0.64420
H          1.61490       -0.01890        2.30140
H          4.35580       -0.60510        0.96220
H          3.49900       -1.65180        2.14820
H          4.18880       -0.10060        2.67170
F          0.24880        2.24840       -2.09920
F          2.16300        3.26900       -1.48960
F          2.15710        1.06750       -1.99090
F          3.79840        1.76790        3.83000
F          4.97360        2.55690        2.05620
H          3.86720        3.70300        3.31370
