18
TSA8_9_CN_H_CHF2
C          2.88090        0.21180        1.75370
C          1.90920        1.34890        1.41670
C          2.45180       -0.93350        0.89280
H          3.87800        0.55800        1.41050
H          1.73610        1.63260        0.37950
C          2.84960       -0.11280        3.32870
C          1.78170       -1.15100        3.50450
C          0.49990       -0.84110        3.56310
O          1.31310        1.98590        2.27310
C          4.05100       -0.56890        4.21640
H          2.61830        0.85170        3.82690
H          2.06360       -2.19720        3.38640
H          0.18940        0.19240        3.59070
H         -0.22260       -1.64340        3.52720
N          2.04240       -1.81660        0.25630
F          4.39650       -1.90160        4.07060
F          5.17410        0.22430        4.07590
H          3.71360       -0.45450        5.28100
