20
TSA8_9_CF3_CH2F_I
C          1.76420        0.10910        0.03450
C          1.41460        1.27540        0.62210
C          1.91350       -1.22210        0.73290
H          1.95250        0.09960       -1.03570
C          1.25940        2.52410       -0.20750
C          4.01320        3.20780        2.50170
C          2.72140        2.97980        2.75740
C          2.17210        1.58620        2.89100
O          1.17870        1.34930        1.95770
I          4.73330        5.18330        2.32540
H          4.71380        2.38750        2.37980
H          2.04230        3.81940        2.87240
H          1.73440        1.48880        3.90600
H          2.97420        0.82180        2.79090
F          3.21800       -1.65600        0.59870
F          1.59550       -1.17210        2.07710
F          1.07470       -2.13760        0.12650
F         -0.03210        2.99980       -0.08310
H          1.46460        2.33730       -1.28350
H          1.96610        3.30240        0.14280
