20
TSA8_9_CF3_CH2F_I
C          2.68920        0.91860        0.61470
C          1.23020        1.41360        0.75340
C          2.74650       -0.61960        0.77990
H          3.03930        1.07760       -0.42900
C          0.93520        2.75680        0.07550
C          3.63450        1.66720        1.59460
C          2.87640        2.37900        2.72390
C          1.63390        1.58800        3.13300
O          0.69830        1.34920        2.07830
I          4.82970        3.13250        0.57490
H          4.36400        0.95030        2.02790
H          2.52980        3.38000        2.40230
H          1.11900        2.17190        3.92430
H          1.93700        0.63020        3.59710
F          4.03870       -1.06440        0.55990
F          2.34840       -1.03550        2.03400
F          1.92130       -1.21460       -0.15870
F         -0.42190        3.01350        0.13190
H          1.23740        2.70230       -0.99140
H          1.47610        3.60020        0.53940
