17
TSA8_9_CCl3_I_F
C          1.74070       -0.17720       -2.01820
C          1.20170       -1.25090       -1.04780
C          1.65290        1.24850       -1.37780
H          2.82760       -0.35370       -2.17410
I          1.98930       -3.23560       -1.35500
C          1.04300       -0.39170       -3.38660
C         -0.47470       -0.45040       -3.24180
C         -0.83290       -1.49490       -2.17600
O         -0.21410       -1.21620       -0.92800
F          1.40660        0.55880       -4.32190
H          1.36240       -1.38040       -3.78270
H         -0.89220        0.53850       -2.97930
H         -0.57730       -2.51760       -2.52770
H         -1.93350       -1.48360       -2.03620
Cl         2.33640        2.49140       -2.46120
Cl         0.01770        1.78110       -0.89320
Cl         2.65050        1.27770        0.10420
