20
TSA8_9_CBr3_I_CF3
C          1.16410       -1.80280        0.67630
C          2.51930       -1.61970        1.36560
C          1.26420       -1.70640       -0.88160
H          0.58790       -0.88820        0.94220
I          4.19880       -2.91320        1.24050
C          0.27440       -2.96090        1.28770
C          0.20850       -2.83330        2.80360
C         -0.28910       -1.75150        3.41430
O          2.68820       -0.62030        2.04720
C          0.61160       -4.42680        0.91910
H         -0.76420       -2.81760        0.91670
H          0.56070       -3.65010        3.42850
H         -0.32220       -1.70980        4.49810
H         -0.67320       -0.90810        2.85080
Br        -0.49750       -1.75400       -1.70160
Br         2.02840        0.01530       -1.36940
Br         2.37430       -3.03530       -1.76990
F          1.88050       -4.78530        1.31520
F         -0.28480       -5.27130        1.55360
F          0.46710       -4.64450       -0.43420
