23
TSA8_9_CF3_Me_Me
C          2.12620       -0.26480       -2.17790
C          0.77630       -0.95430       -2.25370
C          2.07320        0.82380       -1.07800
H          2.88580       -1.01860       -1.86920
C          0.65870       -2.41590       -1.93820
C          2.53610        0.30310       -3.57290
C          3.91850        0.91530       -3.52330
C          4.13650        2.20370       -3.80460
O         -0.22110       -0.32470       -2.57490
C          2.54920       -0.79300       -4.65130
H          1.78930        1.06960       -3.88110
H          4.76270        0.28730       -3.25190
H          3.32130        2.86560       -4.07980
H          5.14380        2.60440       -3.75760
F          3.31730        1.39590       -0.88460
F          1.17250        1.81900       -1.41720
F          1.67860        0.25550        0.12120
H          1.29740       -2.99970       -2.63300
H         -0.39310       -2.75810       -2.04470
H          0.99100       -2.59880       -0.89520
H          1.54230       -1.24300       -4.77460
H          3.27000       -1.59660       -4.38680
H          2.84130       -0.35830       -5.63170
