23
TSA8_9_CF3_Me_Me
C          1.69670       -0.02650       -0.09510
C          1.41010       -0.66820       -1.25760
C          1.89920        1.45300        0.13150
H          1.77070       -0.62420        0.80960
C          1.15890       -2.15100       -1.23920
C          2.68320        0.51710       -5.53080
C          2.77400       -0.04030       -4.31520
C          2.33140        0.67310       -3.07130
O          1.32750       -0.06680       -2.47510
C          3.13300       -0.22850       -6.74880
H          2.27950        1.51880       -5.64850
H          3.17940       -1.04360       -4.21230
H          1.94620        1.68700       -3.31340
H          3.21550        0.76880       -2.40320
F          3.19520        1.67260        0.55770
F          1.64890        2.22590       -0.98080
F          1.03100        1.86230        1.12570
H          1.89990       -2.65430       -1.89460
H          0.13930       -2.35450       -1.62750
H          1.23890       -2.58710       -0.22020
H          2.54830       -1.16680       -6.85540
H          4.21240       -0.47550       -6.66470
H          2.97620        0.39730       -7.65230
