20
TSA8_9_Me_Me_I
C          2.64800        0.76320        0.78700
C          1.26980        1.39310        0.83490
C          2.51500       -0.73080        0.44810
H          3.19640        1.25230       -0.04870
C          0.92590        2.51440       -0.10000
C          3.50740        1.01680        2.06250
C          3.04990        0.31780        3.32540
C          1.97680        0.69390        4.02630
O          0.41390        0.96970        1.59660
I          5.54650        0.43120        1.68210
H          3.57730        2.10900        2.25860
H          3.64320       -0.50450        3.71420
H          1.36840        1.53790        3.72730
H          1.71430        0.16340        4.93600
H          1.97260       -1.27060        1.25360
H          3.50930       -1.20260        0.31420
H          1.95230       -0.85550       -0.50200
H          1.60370        3.37380        0.08490
H         -0.12340        2.84680        0.05150
H          1.04450        2.17400       -1.15010
