20
TSA8_9_Me_Me_I
C          1.72970        0.16080        0.06040
C          1.44950        1.36310        0.64190
C          2.07180       -1.16850        0.67580
H          1.69740        0.11380       -1.02630
C          1.10150        2.51980       -0.25450
C          4.32680        1.80550        3.71810
C          3.53690        1.09840        2.90300
C          2.04000        1.07870        3.07310
O          1.44170        1.66500        1.97670
I          6.41560        1.84820        3.41990
H          3.91270        2.38470        4.53820
H          3.98390        0.54130        2.08640
H          1.75330        1.67870        3.96200
H          1.64160        0.07190        3.27690
H          2.09880       -1.20940        1.76500
H          3.06660       -1.49250        0.30530
H          1.31710       -1.91010        0.34220
H          1.83210        3.33750       -0.08510
H          0.08510        2.88560       -0.00200
H          1.11960        2.25740       -1.33410
