20
TSA8_9_CH2F_CH2F_H
C          2.62790        1.13760        0.41490
C          1.24850        1.76350        0.37240
C          2.50690       -0.39020        0.53400
H          3.11940        1.35690       -0.55970
C          0.83010        2.56520       -0.82800
C          3.56770        1.73230        1.49950
C          3.20660        1.44910        2.93920
C          2.18840        2.03500        3.57430
O          0.45570        1.58690        1.28440
H          4.56690        1.27470        1.33120
H          3.68990        2.82770        1.35380
H          3.83510        0.76280        3.49980
H          1.55600        2.76410        3.08350
H          1.99660        1.80000        4.61630
F          3.75490       -0.98320        0.46060
H          1.88350       -0.78490       -0.29690
H          2.02880       -0.67280        1.49640
F         -0.46550        3.03020       -0.68350
H          0.88470        1.92930       -1.73660
H          1.51230        3.43240       -0.94980
