20
TSA8_9_CH2F_CH2F_H
C          2.79520        1.06660        0.44830
C          1.41370        1.79890        0.56040
C          2.66520       -0.41250        0.84810
H          3.14620        1.06270       -0.60820
C          1.09210        2.56970       -0.71920
C          3.82570        1.81390        1.30700
C          3.34820        1.94090        2.76080
C          1.81990        2.09870        2.83080
O          1.33870        2.71250        1.65690
H          4.84010        1.36380        1.26050
H          3.90190        2.84350        0.89320
H          3.63750        1.07500        3.39410
H          1.55540        2.70570        3.72070
H          1.31050        1.12020        2.97900
F          3.88040       -1.05540        0.69030
H          1.91970       -0.90860        0.19060
H          2.33430       -0.54160        1.89640
F         -0.15910        3.14900       -0.61390
H          1.08950        1.87900       -1.58880
H          1.84880        3.36580       -0.88780
