20
TSA8_9_Me_CHF2_Cl
C          2.71860        0.82670        0.87530
C          1.28690        1.35640        1.23000
C          2.67480       -0.69180        0.63380
H          3.07350        1.27810       -0.07850
C          0.87230        2.52090        0.32830
C          3.68610        1.22830        2.00440
C          3.19130        0.71730        3.36570
C          1.65520        0.75900        3.44230
O          1.15120        1.76470        2.59200
Cl         5.37660        0.73580        1.70540
H          3.67560        2.33950        2.05030
H          3.52050       -0.31760        3.60180
H          1.34560        0.94770        4.49070
H          1.20470       -0.22290        3.17310
H          2.34680       -1.25410        1.52960
H          3.67720       -1.06570        0.33890
H          1.97060       -0.91720       -0.19520
F         -0.42720        2.89300        0.61900
F          1.71040        3.60410        0.52490
H          0.91960        2.20940       -0.73660
