21
TSA8_9_OMe_CN_NO2
C          2.39080       -1.02370       -1.13800
C          3.14250       -1.45740        0.08630
O          2.62510        0.36670       -1.31090
H          1.33780       -1.26530       -0.86220
C          2.62530       -1.04520        1.37500
C          2.73640       -1.82420       -2.43810
C          1.57420       -1.77530       -3.39870
C          0.46310       -2.47590       -3.13680
O          4.04060       -2.28190        0.03470
N          3.94610       -1.36000       -3.09940
H          2.86380       -2.90380       -2.19590
H          1.63910       -1.20660       -4.32070
H          0.39290       -3.08610       -2.23790
H         -0.37180       -2.46790       -3.82580
C          1.46840        1.09300       -1.66320
H          1.71610        1.73560       -2.53390
H          1.17920        1.74500       -0.81300
H          0.59810        0.47140       -1.96310
N          2.19350       -0.74270        2.40470
O          4.03770       -0.23300       -3.48460
O          4.85140       -2.23920       -3.47450
