21
TSA8_9_OMe_CN_NO2
C          1.62410       -0.01730        0.00520
C          1.92490       -1.30300        0.28430
O          1.69300        0.47750       -1.25830
H          1.28440        0.63080        0.81150
C          1.75530       -1.80710        1.62640
C          3.30430       -2.60790       -3.93110
C          2.79560       -1.82430       -2.96800
C          1.88660       -2.38490       -1.91020
O          2.39040       -2.17560       -0.64570
N          4.11200       -2.08730       -4.97990
H          3.07430       -3.66980       -3.92850
H          3.00490       -0.75790       -2.97310
H          1.77490       -3.48390       -2.01960
H          0.88750       -1.91920       -2.03470
C          0.90110        1.51990       -1.71650
H          1.36600        1.97730       -2.61190
H          0.74070        2.30330       -0.94400
H         -0.08840        1.12770       -2.04560
N          1.62730       -2.23420        2.69480
O          4.37180       -0.92290       -5.03780
O          4.53760       -2.89240       -5.92810
