20
TSA8_9_Me_CBr3_Br
C          1.63980       -0.00590        0.09570
C          1.45320       -0.74110        1.22640
C          1.79040       -0.53710       -1.30440
H          1.65580        1.07400        0.14730
C          1.21460       -0.08590        2.57940
C          4.26700       -3.86460        1.96460
C          2.95750       -3.84170        1.69390
C          2.37770       -2.94050        0.64270
O          1.44980       -2.10560        1.23700
Br         4.95380       -5.02740        3.31700
H          4.96160       -3.22640        1.42700
H          2.28620       -4.49010        2.24920
H          1.87100       -3.57180       -0.11640
H          3.18930       -2.35720        0.15310
H          1.67000       -1.62910       -1.39470
H          2.78140       -0.24080       -1.70620
H          1.00030       -0.08360       -1.93820
Br         1.19140        1.86450        2.62280
Br        -0.49390       -0.68750        3.26830
Br         2.59970       -0.66450        3.80500
