24
TSA8_9_CH2F_OMe_CF3
C          2.80830       -1.31980       -0.47200
C          1.42120       -1.75830       -0.00250
C          2.83760        0.22150       -0.55100
H          3.55320       -1.61230        0.29340
O          1.21500       -2.46500        1.14200
C          3.18640       -2.08270       -1.78690
C          2.25690       -1.74960       -2.93760
C          1.46530       -2.67020       -3.49720
O          0.44590       -1.46630       -0.67770
C          4.64920       -1.89220       -2.24250
H          3.09420       -3.16460       -1.53620
H          2.23230       -0.73580       -3.32540
H          1.45730       -3.69630       -3.14280
H          0.81410       -2.39620       -4.32090
F          4.11420        0.69940       -0.76890
H          2.50170        0.64210        0.42130
H          2.15460        0.60050       -1.33970
C          2.19240       -2.92770        1.99640
H          1.71220       -3.48210        2.82840
H          2.76600       -2.07880        2.42510
H          2.87300       -3.62140        1.45740
F          4.88410       -0.61050       -2.70420
F          5.51550       -2.17000       -1.20000
F          4.92130       -2.77120       -3.27670
