24
TSA8_9_CH2F_OMe_CF3
C          1.83500       -0.00580       -0.01820
C          1.66780       -1.35160        0.07950
C          1.74690        0.92070       -1.19890
H          2.07950        0.50900        0.90700
O          1.84930       -1.86980        1.31900
C          3.83460       -2.92320       -2.21210
C          2.95710       -1.99860       -2.63420
C          1.50390       -2.14830       -2.30000
O          1.36620       -2.22870       -0.92780
C          5.30350       -2.80930       -2.47690
H          3.47400       -3.78250       -1.64850
H          3.29460       -1.13140       -3.19550
H          1.14040       -3.10030       -2.74060
H          0.85650       -1.36770       -2.73330
F          2.96320        1.56070       -1.34710
H          0.97110        1.68560       -0.98800
H          1.49640        0.46860       -2.15780
C          2.30660       -3.15390        1.52870
H          2.30750       -3.37050        2.61660
H          3.35180       -3.23030        1.15490
H          1.67410       -3.89930        1.00480
F          5.79120       -1.65570       -1.89720
F          5.95340       -3.90160       -1.92990
F          5.53840       -2.78060       -3.83830
