22
TSA8_9_NO2_CCl3_CBr3
C          2.73690       -1.73350       -0.88620
C          1.54370       -2.34960       -0.16270
N          2.49430       -0.30720       -1.05380
H          3.62290       -1.82790       -0.22450
C          1.64050       -2.80750        1.28310
C          3.11270       -2.37260       -2.27490
C          1.94420       -2.34010       -3.24780
C          1.95490       -1.59880       -4.35920
O          0.45950       -2.38520       -0.72500
C          3.71420       -3.80880       -2.22420
H          3.93320       -1.73130       -2.67110
H          1.06480       -2.94300       -3.04800
H          1.09610       -1.61380       -5.02340
H          2.80590       -0.97680       -4.61440
O          1.57690        0.08830       -1.70680
O          3.28710        0.56310       -0.46320
Cl         2.83600       -4.10640        1.49790
Cl         2.11980       -1.43220        2.30970
Cl         0.06810       -3.41030        1.88540
Br         4.34620       -4.31510       -3.99400
Br         5.27900       -3.89230       -1.07310
Br         2.44860       -5.18040       -1.67690
