22
TSA8_9_NO2_CCl3_CBr3
C          1.72480       -0.09460       -0.03340
C          1.43990       -1.42960       -0.10900
N          1.80640        0.81030       -1.13470
H          1.87850        0.35470        0.93900
C          1.26930       -2.28360        1.14180
C          3.57030       -3.70520       -3.57940
C          2.69460       -3.46630       -2.59150
C          2.16110       -2.08500       -2.35730
O          1.28630       -2.10480       -1.28510
C          4.13900       -5.07780       -3.82470
H          3.88410       -2.88270       -4.21710
H          2.37300       -4.27790       -1.94380
H          1.62120       -1.74640       -3.26720
H          3.02670       -1.41500       -2.15740
O          1.39750        0.51980       -2.21620
O          2.15290        2.05780       -0.90310
Cl         2.46570       -3.60360        1.10880
Cl         1.45560       -1.43520        2.70870
Cl        -0.35960       -3.00480        1.12310
Br         5.36710       -5.02420       -5.32310
Br         5.11340       -5.69450       -2.26410
Br         2.72710       -6.34170       -4.23860
