23
TSA8_9_CBr3_CF3_CCl3
C          0.97790       -1.51930        0.97570
C          2.14010       -2.52650        1.01660
C          1.29820        0.01540        0.77790
H          0.55610       -1.69070       -0.04220
C          3.58120       -2.26030        1.39590
C         -0.20980       -1.88740        1.96560
C         -0.99620       -3.04690        1.36380
C         -2.25930       -2.91040        0.94590
O          1.88720       -3.67520        0.68300
C          0.10870       -2.24670        3.46320
H         -0.89190       -1.01330        1.99050
H         -0.52920       -4.02100        1.26340
H         -2.77880       -1.96010        1.01990
H         -2.78420       -3.76070        0.52270
Br        -0.31070        0.95410        0.20280
Br         1.97240        1.07550        2.25830
Br         2.53870        0.25300       -0.70580
F          3.82750       -0.96750        1.78230
F          3.93120       -3.09030        2.44470
F          4.39120       -2.55300        0.31390
Cl         0.94720       -0.97840        4.37050
Cl        -1.42660       -2.50730        4.34450
Cl         1.05950       -3.74850        3.65720
