23
TSA8_9_Et_CBr3_I
C          1.93200       -1.56500       -1.06980
C          1.38170       -1.25430        0.32390
C          1.96850       -0.30270       -1.97990
H          2.98930       -1.89050       -0.95980
C          1.58030       -2.16260        1.52420
C          1.12800       -2.73160       -1.71580
C         -0.31900       -2.37430       -1.96590
C         -1.32230       -3.04360       -1.38870
O          0.74760       -0.22210        0.49850
I          2.00000       -3.39650       -3.56250
H          1.17810       -3.61790       -1.05310
H         -0.55810       -1.55800       -2.63920
H         -1.13240       -3.87140       -0.71290
H         -2.34990       -2.76280       -1.59430
C          2.93260        0.76670       -1.45550
H          0.95480        0.13860       -2.08620
H          2.32940       -0.57790       -2.99190
H          2.63220        1.13530       -0.45430
H          2.94310        1.63030       -2.15330
H          3.96220        0.35380       -1.39120
Br         2.42750       -1.14360        2.93950
Br        -0.14180       -2.77750        2.16380
Br         2.70830       -3.71950        1.21730
