23
TSA8_9_Et_CBr3_I
C          1.84670       -0.10290        0.06640
C          1.26990       -1.32400        0.15660
C          1.98330        0.66330       -1.22990
H          2.23180        0.40420        0.94150
C          1.15170       -2.05950        1.50360
C         -0.02510       -4.51210       -3.01860
C         -0.21190       -3.25240       -2.61030
C         -0.13010       -2.87210       -1.16120
O          0.81690       -1.88190       -1.00730
I         -0.14890       -5.00880       -5.06520
H          0.18700       -5.30570       -2.30790
H         -0.43050       -2.48030       -3.34230
H          0.11720       -3.76090       -0.54700
H         -1.12080       -2.47730       -0.85220
C          3.44750        0.97920       -1.51200
H          1.42060        1.61750       -1.13530
H          1.56780        0.10670       -2.09500
H          3.87780        1.58490       -0.68520
H          3.52600        1.56070       -2.45420
H          4.02990        0.03980       -1.61990
Br         1.90810       -1.13140        3.04560
Br        -0.69850       -2.40450        1.98150
Br         2.10810       -3.74460        1.39960
