20
TSA8_9_Br_Et_H
C          2.41070        0.20510        1.06630
C          1.29850        1.21480        1.23850
Br         1.64840       -1.53890        0.66830
H          3.01300        0.49400        0.17800
C          1.23730        2.45490        0.38670
C          3.40800        0.11700        2.24420
C          2.83520       -0.30790        3.57430
C          2.07470        0.49470        4.32470
O          0.40380        1.00720        2.04460
H          4.16500       -0.64340        1.95250
H          3.94500        1.08140        2.37290
H          3.09010       -1.29050        3.96000
H          1.83060        1.50260        4.00590
H          1.70630        0.15030        5.28500
C          2.43110        3.36700        0.65740
H          0.30870        3.02230        0.61700
H          1.21390        2.16720       -0.68630
H          2.44580        3.66780        1.72730
H          2.35010        4.28060        0.03190
H          3.38560        2.85670        0.41130
