20
TSA8_9_Br_Et_H
C          1.81460        0.26120       -0.16990
C          1.44570        1.09770        0.81410
Br         2.23300       -1.57730        0.17210
H          1.88450        0.60660       -1.19630
C          1.09310        2.53890        0.49790
C          4.05570       -0.79070        3.57080
C          2.76600       -0.44380        3.61500
C          2.27370        0.86790        3.07580
O          1.34650        0.62390        2.08240
H          4.37230       -1.74940        3.96830
H          4.80220       -0.13080        3.13950
H          2.04790       -1.13200        4.05100
H          3.12500        1.47350        2.69070
H          1.78570        1.42920        3.89910
C          1.98440        3.54520        1.21780
H          0.03670        2.72040        0.78770
H          1.18240        2.73030       -0.59470
H          1.86520        3.46330        2.31740
H          1.69030        4.57430        0.92200
H          3.04780        3.38530        0.94030
