20
TSA8_9_Br_Et_H
C          2.41380       -0.05300        0.87970
C          1.30050        0.96590        1.19080
Br         1.60710       -1.82200        0.77770
H          2.85450        0.13850       -0.12170
C          1.37050        2.37400        0.56050
C          3.49420       -0.01810        1.96090
C          2.84250       -0.15560        3.33350
C          1.79700        0.95110        3.50100
O          0.77670        0.89500        2.51310
H          4.23660       -0.82750        1.79690
H          4.03780        0.94690        1.92530
H          2.35770       -1.14900        3.44330
H          2.28890        1.93890        3.52700
H          1.32320        0.81960        4.49590
C          2.39870        3.33920        1.14270
H          0.36680        2.84180        0.64330
H          1.58960        2.24590       -0.52100
H          2.15570        3.60140        2.18890
H          2.36940        4.28580        0.56230
H          3.42330        2.92740        1.06750
