20
TSA8_9_CH2F_CHF2_Cl
C          2.70080       -1.42040       -0.61000
C          1.41280       -2.01460       -0.07120
C          2.42150       -0.01340       -1.16030
H          3.40930       -1.28200        0.23760
C          1.26250       -2.29970        1.39810
C          3.40750       -2.37370       -1.62310
C          2.60620       -2.73150       -2.85840
C          2.33450       -1.85900       -3.83390
O          0.48210       -2.24580       -0.83010
Cl         3.84800       -3.89160       -0.78200
H          4.36940       -1.92270       -1.95000
H          2.26180       -3.75420       -2.98520
H          1.77010       -2.18050       -4.70320
H          2.68260       -0.83410       -3.79640
F          3.59020        0.56630       -1.62150
H          2.01190        0.62580       -0.34870
H          1.66690       -0.03010       -1.97130
F          0.00670       -2.81400        1.67070
F          2.21880       -3.21150        1.80350
H          1.39420       -1.35740        1.96970
