20
TSA8_9_CH2F_CHF2_Cl
C          1.65950       -0.10500        0.02040
C          1.44620       -1.44600        0.00910
C          1.86450        0.78200       -1.17770
H          1.65440        0.41360        0.97530
C          1.16650       -2.15910        1.30450
C          3.92390       -3.81090       -3.19370
C          2.98710       -3.56260       -2.27440
C          2.39280       -2.19360       -2.12600
O          1.45120       -2.21730       -1.11380
Cl         4.61150       -5.41950       -3.34760
H          4.27420       -3.02410       -3.85510
H          2.65290       -4.36480       -1.62150
H          1.89960       -1.90530       -3.07860
H          3.21800       -1.48430       -1.89530
F          3.10920        1.37710       -1.10200
H          1.08640        1.57320       -1.16420
H          1.76510        0.26370       -2.14620
F         -0.07390       -2.76490        1.23540
F          2.13200       -3.12830        1.50750
H          1.17310       -1.46960        2.17530
