20
TSA8_9_I_CHF2_CCl3
C          3.24870       -1.75840        0.15660
C          1.78680       -1.61980        0.52120
I          3.88670        0.13370       -0.65960
H          3.80790       -1.89430        1.10460
C          1.35540       -1.72030        1.95780
C          3.48590       -3.01410       -0.74410
C          2.84520       -2.83260       -2.10830
C          1.84540       -3.61120       -2.53470
O          0.95240       -1.41560       -0.34910
C          4.97860       -3.44130       -0.89690
H          2.99750       -3.86470       -0.21450
H          3.20820       -2.04940       -2.76620
H          1.44930       -4.40850       -1.91350
H          1.41610       -3.45050       -3.51780
F         -0.01400       -1.55620        2.07280
F          1.70490       -2.95950        2.46300
H          1.86150       -0.92990        2.54980
Cl         5.07270       -4.98580       -1.79160
Cl         5.99330       -2.26710       -1.78010
Cl         5.72800       -3.73640        0.69750
