20
TSA8_9_I_CHF2_CCl3
C          3.18940       -1.80920       -0.05480
C          1.64900       -1.81030        0.22040
I          3.60320       -0.11680       -1.32240
H          3.74140       -1.59130        0.88470
C          1.32840       -1.90680        1.71260
C          3.59740       -3.19560       -0.62080
C          2.78270       -3.49720       -1.89740
C          1.37100       -2.89610       -1.81360
O          0.94380       -2.84140       -0.47140
C          5.11660       -3.47740       -0.79700
H          3.25150       -3.92250        0.14870
H          3.25160       -3.12940       -2.83520
H          0.67220       -3.51090       -2.41750
H          1.34050       -1.87650       -2.26180
F         -0.03810       -1.81210        1.89940
F          1.77610       -3.10990        2.22890
H          1.81570       -1.07060        2.25720
Cl         5.35860       -5.18930       -1.24640
Cl         5.90170       -2.49020       -2.06060
Cl         5.98850       -3.21350        0.73770
