20
TSA8_9_NH2_OH_Me
C          2.13200        0.16450        2.39670
C          0.80700        0.86150        2.64750
N          2.04880       -0.47820        1.08110
H          2.91940        0.95010        2.35720
O          0.39050        1.83150        1.80600
C          2.53490       -0.86650        3.50010
C          3.83990       -1.53990        3.13180
C          3.93120       -2.85960        2.94100
O          0.08950        0.54710        3.58380
C          2.73340       -0.20280        4.87430
H          1.72810       -1.62950        3.58850
H          4.73260       -0.93060        3.01680
H          3.06470       -3.50480        3.04410
H          4.88600       -3.30270        2.67670
H          2.98360       -0.83480        0.77950
H          1.37020       -1.27460        1.11240
H          0.92410        2.10880        1.04790
H          1.80810        0.27660        5.24620
H          3.53120        0.56940        4.82420
H          3.02820       -0.96870        5.62410
