20
TSA8_9_NH2_OH_Me
C          1.75590        0.01580        0.14680
C          1.51130        0.55940        1.36560
N          1.97840       -1.36620       -0.09170
H          1.74530        0.67110       -0.72010
O          1.22420        1.87930        1.44530
C          2.94280       -1.39180        5.34440
C          3.04910       -0.67140        4.21820
C          2.41910       -1.10700        2.92800
O          1.51430       -0.13870        2.53480
C          3.57450       -0.94180        6.62830
H          2.38800       -2.32580        5.34640
H          3.60430        0.26260        4.22090
H          1.88600       -2.07510        3.04840
H          3.24080       -1.22640        2.19010
H          2.15430       -1.68370       -1.05530
H          1.88120       -2.08330        0.63700
H          1.19120        2.46020        0.67170
H          2.78640       -0.81480        7.39900
H          4.11290        0.02340        6.50950
H          4.29710       -1.71090        6.97100
