17
TSA8_9_OH_CN_CN
C          2.52430        1.41740       -0.69890
C          1.55380        0.89030       -1.75520
O          2.22150        0.89430        0.58180
H          3.51720        1.02320       -0.99520
C          1.47020       -0.51050       -2.06330
C          2.57140        2.98100       -0.68460
C          1.50350        3.49500        0.24100
C          0.23430        3.58110       -0.14900
O          0.93330        1.65490       -2.47580
C          3.86930        3.56680       -0.30640
H          2.43950        3.37560       -1.71620
H          1.74620        3.66240        1.28970
H         -0.04730        3.37510       -1.17130
H         -0.53670        3.83510        0.56400
H          1.24960        1.03890        0.76150
N          1.42150       -1.63550       -2.32770
N          4.89100        4.06150       -0.07980
