17
TSA8_9_OH_CN_CN
C          1.60070        0.01350       -0.04430
C          1.46040        0.50850       -1.38000
O          1.65780        0.73280        1.08410
H          1.46990       -1.06050        0.09050
C          1.33970       -0.47210       -2.42610
C          2.49930        4.70790       -0.83470
C          2.18660        3.45990       -0.46620
C          0.93140        2.80320       -0.97380
O          1.26490        1.80110       -1.85900
C          3.78990        5.24340       -0.49850
H          1.83140        5.29660       -1.45800
H          2.88400        2.88440        0.13990
H          0.31510        3.51970       -1.52800
H          0.24800        2.43710       -0.18040
H          0.96400        1.30280        1.45200
N          1.24620       -1.28290       -3.24560
N          4.83470        5.65140       -0.21290
