17
TSA8_9_H_CBr3_H
C          1.31960        1.78530        0.12290
C          1.90690        1.84800       -1.27040
H          1.86620        1.02410        0.71900
H          0.25850        1.46150        0.06230
C          1.06490        1.52100       -2.48400
C          1.35070        3.14700        0.83810
C          2.74580        3.66440        1.07780
C          3.62330        3.00880        1.84400
O          3.08280        2.15240       -1.40770
H          0.78850        3.88570        0.22660
H          0.83810        3.05290        1.81970
H          3.04290        4.60420        0.62180
H          3.35910        2.07140        2.32350
H          4.61790        3.41400        1.99850
Br         0.41030       -0.30040       -2.36610
Br        -0.44750        2.72960       -2.59440
Br         2.07440        1.68230       -4.13880
