17
TSA8_9_H_CBr3_H
C          0.91240        2.17590        0.27150
C          1.74740        2.44410       -1.00080
H          1.22190        1.18840        0.67740
H         -0.18240        2.14030        0.09590
C          1.39970        1.49620       -2.16440
C          1.21790        3.26870        1.30100
C          2.70080        3.67050        1.28910
C          3.54590        2.59730        0.59480
O          3.16100        2.40540       -0.76460
H          0.62840        4.18510        1.07790
H          0.90960        2.90230        2.30300
H          2.82410        4.59280        0.67790
H          3.49790        1.63430        1.14840
H          4.60240        2.93670        0.61170
Br         1.79250       -0.35700       -1.73080
Br        -0.46940        1.64570       -2.66960
Br         2.44450        1.98410       -3.72380
