18
TSA8_9_CBr3_CN_Cl
C          2.05000       -0.22690        1.77730
C          1.00020        0.86950        1.37290
C          2.07380       -1.40550        0.70900
H          3.06630        0.22710        1.77410
C          1.62150        2.18140        1.16240
C          1.77660       -0.55790        3.26780
C          0.35040       -1.06140        3.47510
C         -0.61630       -0.29040        2.56690
O         -0.10390        0.98940        2.26850
Cl         2.98590       -1.58540        4.08310
H          1.82740        0.41410        3.81450
H          0.22180       -2.14750        3.29440
H         -1.59090       -0.20330        3.08900
H         -0.81730       -0.85170        1.62640
Br         0.80910       -1.18160       -0.77090
Br         3.81060       -1.45850       -0.15980
Br         1.79300       -3.21560        1.36400
N          2.11320        3.21760        0.99530
