17
TSA8_9_CH2F_F_H
C          1.81270        0.04280        0.01050
C          1.12550        0.70470        0.95250
C          2.05950       -1.43910        0.05320
H          2.21190        0.59920       -0.83230
F          0.95100        2.04840        0.81750
C         -0.22320       -0.18790        5.31060
C         -0.55900       -0.31890        4.02400
C         -0.14600        0.68500        2.98800
O          0.60690        0.05410        2.02230
H         -0.54020       -0.93370        6.03240
H          0.36490        0.65700        5.65640
H         -1.14940       -1.17680        3.71560
H          0.44660        1.50900        3.44490
H         -1.06080        1.11590        2.52620
F          3.42100       -1.67530        0.06300
H          1.61780       -1.90440       -0.85220
H          1.60810       -1.91900        0.94660
