24
TSA8_9_OMe_CBr3_CCl3
C          1.32540        0.19470        0.04720
C          1.31000        1.54440        0.01920
O          1.18270       -0.47230        1.21520
H          1.46860       -0.38130       -0.85960
C          1.50320        2.34580       -1.25630
C          0.04040        2.43420        4.40570
C          0.25200        1.68670        3.30700
C         -0.02660        2.21640        1.92640
O          1.13010        2.25320        1.16720
C          0.25970        1.95980        5.82450
H         -0.32020        3.45270        4.28460
H          0.61430        0.67160        3.38940
H         -0.43490        3.24880        1.97260
H         -0.80010        1.57520        1.45210
C          1.23440       -1.84530        1.29110
H          1.10740       -2.15720        2.34810
H          2.21730       -2.21280        0.92520
H          0.41890       -2.29340        0.68300
Br         1.75180        1.31490       -2.89310
Br        -0.05580        3.46560       -1.52410
Br         3.05020        3.49240       -1.05290
Cl         1.47820        3.00110        6.59680
Cl        -1.27250        2.12400        6.71480
Cl         0.80280        0.26110        5.97310
