17
TSA8_9_I_CH2F_F
C          2.95730       -1.20370        1.04060
C          1.46690       -1.29320        1.26920
I          3.35050        0.14670       -0.58420
H          3.40990       -0.74230        1.94580
C          0.88760       -0.88550        2.59400
C          3.68740       -2.55550        0.84500
C          3.31800       -3.33310       -0.39760
C          2.15680       -3.97700       -0.54440
O          0.72220       -1.65080        0.36980
F          5.04370       -2.28340        0.77900
H          3.53040       -3.20390        1.73440
H          4.05110       -3.41280       -1.19560
H          1.40520       -3.97790        0.23600
H          1.96110       -4.53660       -1.45340
F         -0.49010       -1.01930        2.59180
H          1.14600        0.17390        2.80230
H          1.31030       -1.52730        3.39520
