17
TSA8_9_I_CH2F_F
C          3.02860       -1.30770        0.88610
C          1.47620       -1.46060        0.99450
I          3.58540       -0.57990       -1.06230
H          3.39990       -0.52380        1.58180
C          0.97250       -0.95100        2.34500
C          3.68380       -2.65430        1.20140
C          3.17050       -3.74440        0.24890
C          1.72320       -3.46290       -0.19020
O          1.01540       -2.80600        0.83650
F          5.06460       -2.57780        1.15550
H          3.38140       -2.93360        2.23390
H          3.78670       -3.84430       -0.67090
H          1.22640       -4.42000       -0.45040
H          1.69230       -2.84700       -1.11680
F         -0.40670       -1.03860        2.39090
H          1.26140        0.11260        2.48090
H          1.40310       -1.55420        3.17230
