20
TSA8_9_NH2_CN_CF3
C          2.69430        0.47750        1.64310
C          1.74990        1.45430        0.96170
N          2.61390       -0.84530        1.00710
H          3.71450        0.89120        1.48530
C          1.97850        1.81880       -0.41350
C          2.46050        0.38740        3.18400
C          1.20830       -0.40340        3.51220
C          0.11770        0.16250        4.03350
O          0.87680        2.03570        1.58690
C          3.67490       -0.21590        3.91760
H          2.36700        1.42930        3.56670
H          1.19120       -1.47170        3.31210
H          0.07860        1.22750        4.23480
H         -0.75530       -0.44680        4.24490
H          1.62640       -1.19410        1.03290
H          2.87890       -0.77160       -0.00150
N          2.17230        2.12310       -1.51340
F          3.93920       -1.49980        3.47500
F          4.79300        0.57200        3.69960
F          3.43210       -0.25030        5.27990
