20
TSA8_9_NH2_CN_CF3
C          1.65500        0.06590       -0.04800
C          1.53370        1.29750        0.52580
N          1.54660       -1.20730        0.58160
H          1.80560        0.03670       -1.12430
C          1.56430        2.42460       -0.38090
C          2.75570        0.40350        4.71550
C          2.33420        0.17170        3.46090
C          1.06680        0.80260        2.93710
O          1.30360        1.60160        1.83960
C          3.99010       -0.22530        5.29850
H          2.18610        1.06670        5.36090
H          2.90510       -0.48670        2.81680
H          0.62500        1.44980        3.72430
H          0.27860        0.06280        2.70010
H          1.32970       -1.37030        1.56610
H          1.60000       -2.04810       -0.01140
N          1.59160        3.31510       -1.12050
F          4.61360       -1.07600        4.40150
F          4.87540        0.77030        5.66370
F          3.63260       -0.94700        6.42190
