22
TSA8_9_F_NH2_Et
C          1.80620        0.18920       -0.21540
C          1.37380        1.25250       -0.92810
F          2.21050        0.27480        1.07770
H          1.82860       -0.79270       -0.67740
N          0.95600        1.05010       -2.26810
C          4.01840        3.63270       -0.19420
C          3.32070        2.97530        0.75070
C          1.81540        3.01540        0.75900
O          1.30500        2.52340       -0.42970
C          5.52750        3.66110       -0.30680
H          3.47070        4.19290       -0.94730
H          3.81780        2.40360        1.52610
H          1.49630        4.07350        0.86790
H          1.40020        2.45600        1.62290
H          0.62890        1.84960       -2.82920
H          0.98320        0.11680       -2.70410
C          6.28170        2.86250        0.75650
H          5.85770        4.72010       -0.25050
H          5.80440        3.26120       -1.30570
H          6.05960        3.25960        1.76980
H          7.37400        2.95130        0.57730
H          6.00430        1.78810        0.70370
