14
TSA8_9_I_H_Br
C          1.82930        0.06950       -0.10600
C          1.49810        0.95830       -1.05490
I          2.02930        0.49340        1.96080
H          1.97100       -0.96750       -0.39420
H          1.36820        0.60130       -2.07110
C          3.53860        4.50500       -2.05340
C          3.30100        3.33190       -1.45840
C          2.24520        3.17600       -0.39530
O          1.27900        2.27680       -0.80930
Br         4.88590        4.64830       -3.40210
H          2.97370        5.39310       -1.78680
H          3.88190        2.46090       -1.74730
H          1.74820        4.14920       -0.19500
H          2.72690        2.84960        0.54440
