14
TSA8_9_I_H_Br
C          2.48140        1.22990       -1.32050
C          1.01560        1.55700       -0.92060
I          3.56950        0.38120        0.33890
H          2.47380        0.42820       -2.09040
H          0.39270        1.40170       -1.82750
C          3.12080        2.50660       -1.87270
C          3.09730        3.61940       -0.81390
C          1.89600        3.46350        0.13670
O          0.78470        2.91580       -0.53710
Br         4.91430        2.23200       -2.56650
H          2.48960        2.84010       -2.72540
H          4.01370        3.64430       -0.18550
H          1.63720        4.45600        0.55920
H          2.14700        2.82420        1.01080
