21
TSA8_9_OH_Me_CF3
C          2.99050       -0.12650       -1.39500
C          1.54350       -0.56110       -1.30550
O          3.34710        0.56940       -0.22770
H          3.62600       -1.03830       -1.49130
C          1.19030       -2.01690       -1.36190
C          3.25710        0.74790       -2.65030
C          2.48680        2.05180       -2.58940
C          1.56820        2.37690       -3.50420
O          0.65610        0.26880       -1.17410
C          4.75910        1.05090       -2.82520
H          2.93990        0.15990       -3.54200
H          2.68650        2.74720       -1.77870
H          1.33750        1.71230       -4.33090
H          1.03800        3.32040       -3.42710
H          3.46320       -0.10990        0.48750
H          1.68550       -2.55270       -0.52520
H          1.53460       -2.44620       -2.32610
H          0.09170       -2.15920       -1.27820
F          5.24810        1.77980       -1.75430
F          5.47460       -0.12920       -2.92820
F          4.95600        1.78070       -3.98500
