21
TSA8_9_OH_Me_CF3
C          1.73860       -0.09570       -0.08560
C          1.42330       -0.71920       -1.24520
O          1.97750        1.22830       -0.01270
H          1.79260       -0.67130        0.83500
C          1.14430       -2.19590       -1.23270
C          3.99190        1.42350       -3.92740
C          3.27300        1.20740       -2.81330
C          1.76590        1.15650       -2.84060
O          1.32580       -0.09700       -2.45830
C          5.49660        1.46050       -3.93990
H          3.48260        1.57390       -4.87520
H          3.77600        1.05170       -1.86480
H          1.39820        1.34250       -3.87250
H          1.32350        1.94760       -2.20200
H          2.18950        1.64590        0.83340
H          1.23860       -2.63970       -0.21830
H          1.86430       -2.70710       -1.90560
H          0.11390       -2.37870       -1.60200
F          6.03280        1.25020       -2.68070
F          5.96270        0.47730       -4.79150
F          5.91500        2.69340       -4.40340
