21
TSA8_9_OH_Me_CF3
C          3.00880        0.03700       -1.39200
C          1.50740       -0.40570       -1.46570
O          3.14500        1.10890       -0.49460
H          3.65070       -0.80350       -1.03780
C          1.38900       -1.91620       -1.65930
C          3.45300        0.48110       -2.79900
C          2.56350        1.64880       -3.28210
C          1.15550        1.57200       -2.66800
O          0.76060        0.22880       -2.50760
C          4.94850        0.83220       -2.89420
H          3.26910       -0.38050       -3.47830
H          2.97020        2.65260       -3.02930
H          0.43930        2.10840       -3.32400
H          1.11630        2.09220       -1.68330
H          3.02620        0.73190        0.41620
H          1.89020       -2.44730       -0.82270
H          1.84800       -2.22760       -2.62110
H          0.31720       -2.20650       -1.66010
F          5.25890        1.89960       -2.06890
F          5.71350       -0.25850       -2.52220
F          5.26730        1.16900       -4.19820
