20
TSA8_9_F_CF3_CBr3
C          2.40170        1.66980        2.07260
C          1.11620        2.39980        1.73890
F          2.38990        0.50200        1.32580
H          3.26910        2.27240        1.73090
C          0.91110        2.95490        0.35520
C          2.61130        1.32360        3.58030
C          3.71130        0.27880        3.67230
C          3.49350       -0.94160        4.17450
O          0.22000        2.50320        2.56220
C          3.00870        2.54400        4.48520
H          1.67010        0.87630        3.97040
H          4.70920        0.52140        3.31790
H          2.51550       -1.23390        4.54140
H          4.30580       -1.66000        4.22220
F         -0.33380        3.55250        0.25160
F          1.88260        3.90280        0.09190
F          0.99880        1.94130       -0.58010
Br         3.24480        1.95350        6.32380
Br         4.68240        3.37170        3.92600
Br         1.69720        3.97020        4.58290
