20
TSA8_9_F_CF3_CBr3
C          1.85160        0.14460        0.09730
C          1.53810        1.26890        0.78060
F          2.23280       -1.00560        0.71010
H          1.77590        0.11490       -0.98410
C          1.06180        2.50580        0.05690
C          3.03560        1.68850        5.19590
C          3.15650        1.65620        3.85950
C          2.41930        0.66200        3.01250
O          1.60660        1.36180        2.14040
C          3.77040        2.70430        6.03100
H          2.39000        0.96840        5.69190
H          3.80160        2.37230        3.35710
H          1.78990       -0.00930        3.63540
H          3.18480        0.05900        2.48700
F         -0.20030        2.84080        0.51040
F          1.92630        3.54850        0.33390
F          1.00710        2.33090       -1.31570
Br         3.36230        2.44000        7.90700
Br         5.68820        2.52890        5.79520
Br         3.22800        4.50160        5.54000
