20
TSA8_9_F_CF3_CBr3
C          2.74700        2.43720        2.34920
C          1.53990        1.67230        1.76910
F          3.87560        2.16050        1.59500
H          2.54880        3.52880        2.31300
C          1.16340        2.11880        0.35480
C          2.92670        1.98490        3.81900
C          3.02320        0.44840        3.86090
C          1.81510       -0.15310        3.12930
O          1.79320        0.28100        1.78450
C          4.10540        2.66580        4.56610
H          1.99770        2.26990        4.36380
H          3.95400        0.10120        3.36220
H          0.86110        0.09710        3.64810
H          1.90840       -1.25900        3.14430
F          0.03940        1.42650       -0.05740
F          0.87790        3.47190        0.34580
F          2.19730        1.86340       -0.52860
Br         4.12820        2.09100        6.42220
Br         5.85270        2.26040        3.81000
Br         3.89400        4.59720        4.58600
