25
TSA8_9_Et_NH2_CCl3
C          2.59710        0.90230       -0.99180
C          1.58270       -0.14280       -1.45190
C          2.31080        1.10910        0.52660
H          3.60410        0.44760       -1.10720
N          1.99230       -1.34220       -1.93000
C          2.54250        2.23180       -1.86040
C          1.72890        2.03870       -3.13920
C          0.60900        2.72610       -3.38660
O          0.38460        0.09840       -1.38650
C          3.95110        2.77460       -2.29610
H          2.02860        3.01160       -1.25520
H          2.06310        1.31550       -3.87800
H          0.06240        2.55410       -4.30830
H          0.22930        3.45850       -2.68180
C          3.27440        2.00180        1.29330
H          2.34590        0.11230        1.02180
H          1.28560        1.52010        0.66060
H          4.30900        1.60600        1.21680
H          2.98830        2.01000        2.36640
H          3.21130        3.04610        0.93060
H          1.30310       -2.04360       -2.23720
H          2.99410       -1.57330       -1.99610
Cl         4.81250        1.60670       -3.34500
Cl         3.76610        4.29680       -3.21830
Cl         5.05560        3.16070       -0.95870
