24
TSA8_9_CHF2_OMe_Me
C          2.94760       -2.24750        0.59420
C          1.42700       -1.99890        0.51880
C          3.68940       -1.05990       -0.06850
H          3.25830       -2.23950        1.66240
O          0.69700       -2.83630        1.38740
C          3.22590       -3.66020        0.00880
C          2.60610       -3.79280       -1.38740
C          1.12100       -3.40800       -1.32090
O          0.93900       -2.09330       -0.81350
C          4.70370       -4.05710       -0.00070
H          2.70590       -4.39410        0.66660
H          3.13380       -3.15260       -2.12290
H          0.54830       -4.14820       -0.71890
H          0.70430       -3.45360       -2.34820
F          5.05730       -1.17430        0.08770
F          3.38920       -0.92390       -1.41180
H          3.38060       -0.12240        0.44180
C          0.44150       -2.11450        2.56700
H          0.08890       -1.07530        2.36980
H          1.34080       -2.11490        3.22010
H         -0.37660       -2.62370        3.11700
H          5.12490       -3.97880        1.02430
H          5.29120       -3.42010       -0.69220
H          4.80650       -5.10960       -0.34120
