20
TSA8_9_Br_Me_Me
C          1.99650        1.40770       -1.80450
C          0.71690        0.90720       -2.42940
Br         1.83890        1.20840        0.12740
H          2.84660        0.77180       -2.13870
C          0.73740       -0.25950       -3.37010
C          2.28650        2.87960       -2.18890
C          3.56110        3.35020       -1.52510
C          3.57690        4.37680       -0.66890
O         -0.34500        1.45400       -2.16910
C          2.43980        3.04580       -3.70820
H          1.43050        3.51000       -1.85630
H          4.49370        2.83990       -1.75030
H          2.66740        4.91340       -0.41680
H          4.51070        4.68700       -0.21170
H          1.38020       -0.02270       -4.24360
H         -0.28740       -0.48990       -3.73170
H          1.14220       -1.15170       -2.84840
H          3.27960        2.42450       -4.08840
H          2.64210        4.11000       -3.95580
H          1.50920        2.74730       -4.23450
