20
TSA8_9_Br_Me_Me
C          2.59100        1.29900       -2.22030
C          1.27820        1.09100       -1.39570
Br         4.14870        1.18760       -1.04680
H          2.72520        0.46600       -2.94500
C          0.26040        0.27950       -2.19790
C          2.49810        2.64910       -2.95100
C          2.31060        3.79130       -1.93340
C          1.57170        3.30730       -0.67350
O          0.63410        2.30580       -0.99800
C          3.67800        2.91850       -3.88890
H          1.57930        2.60760       -3.57680
H          3.26720        4.24860       -1.59670
H          1.06200        4.16940       -0.19670
H          2.27900        2.91880        0.09200
H         -0.03660        0.82400       -3.11900
H         -0.64390        0.10210       -1.57910
H          0.68860       -0.70650       -2.47700
H          3.76080        2.10320       -4.63890
H          4.63090        2.98320       -3.32320
H          3.52050        3.87670       -4.42850
