22
TSA8_9_CHF2_NO2_CH2F
C          2.68440       -1.36040       -0.74120
C          1.50160       -1.54180        0.20650
C          2.72250        0.11300       -1.21510
H          3.62100       -1.52530       -0.16840
N          1.68100       -1.86440        1.51940
C          2.65090       -2.46550       -1.85250
C          1.47840       -2.32800       -2.80290
C          0.51690       -3.25210       -2.88660
O          0.36560       -1.39050       -0.22560
C          3.95250       -2.57290       -2.66680
H          2.57390       -3.43390       -1.30510
H          1.41610       -1.45900       -3.44980
H          0.53480       -4.14210       -2.26610
H         -0.30210       -3.11720       -3.58600
F          3.86030        0.39110       -1.94410
F          1.60350        0.45030       -1.95520
H          2.74740        0.77200       -0.32050
O          0.73630       -1.99950        2.23800
O          2.88810       -2.03340        2.01800
F          4.14220       -1.49080       -3.50500
H          3.90800       -3.48250       -3.30410
H          4.82490       -2.67930       -1.98740
