20
TSA8_9_CN_NH2_CF3
C          2.90160       -1.65770       -0.00740
C          1.95090       -1.73430        1.20100
C          2.41160       -0.60520       -0.93920
H          3.88570       -1.28440        0.35950
N          2.07580       -0.90850        2.26070
C          3.00640       -3.09620       -0.71920
C          2.03830       -3.10100       -1.87820
C          0.74910       -3.35070       -1.72480
O          1.09670       -2.60780        1.25240
C          4.32780       -3.81650       -1.18170
H          2.70300       -3.79950        0.07860
H          2.38180       -2.69100       -2.82910
H          0.35750       -3.67050       -0.77160
H          0.08480       -3.17640       -2.55880
N          2.00150        0.20200       -1.67510
H          1.46100       -1.03680        3.07780
H          2.78590       -0.16310        2.28350
F          5.43090       -3.43490       -0.44450
F          4.15960       -5.18800       -0.99420
F          4.60730       -3.64160       -2.52910
