22
TSA8_9_CBr3_CCl3_NO2
C          2.01710       -0.14160       -0.01290
C          1.88100       -0.42660        1.32280
C          1.77210       -0.85050       -1.34100
H          2.43610        0.84190       -0.21420
C          2.38670        0.62440        2.30680
C          0.21830       -4.68130        2.42870
C          0.74040       -3.78070        1.57790
C          0.29200       -2.34260        1.56210
O          1.35880       -1.54550        1.90410
N          0.65820       -6.03630        2.46320
H         -0.55910       -4.37380        3.12520
H          1.52340       -4.08830        0.89610
H         -0.49500       -2.19340        2.33210
H         -0.17000       -2.03310        0.61010
Br         0.48480        0.18480       -2.35070
Br         3.44580       -0.76910       -2.31340
Br         1.25820       -2.70810       -1.46730
Cl         2.15450        0.12350        4.00850
Cl         4.13420        0.90510        2.07170
Cl         1.51110        2.16580        2.08540
O          1.51270       -6.42580        1.72390
O          0.12570       -6.86760        3.33080
