22
TSA8_9_CBr3_CCl3_NO2
C          1.99080       -2.00510        0.95010
C          1.38540       -0.63070        1.45440
C          1.99870       -2.13280       -0.62690
H          3.06350       -2.04320        1.23940
C          2.38140        0.24100        2.26590
C          1.28410       -3.14400        1.74860
C         -0.24570       -3.06550        1.59860
C         -0.72620       -1.60580        1.63970
O          0.22690       -0.79280        2.27890
N          1.81470       -4.47120        1.48850
H          1.47470       -2.93210        2.82460
H         -0.67150       -3.57120        0.70780
H         -1.68920       -1.56570        2.18870
H         -0.95120       -1.19310        0.63670
Br         0.28000       -2.16510       -1.52750
Br         2.95290       -0.65990       -1.45130
Br         2.95160       -3.71200       -1.23670
Cl         2.83200       -0.55860        3.79830
Cl         3.88320        0.62630        1.38930
Cl         1.60240        1.79460        2.66330
O          2.95980       -4.70740        1.73010
O          1.03270       -5.44480        1.06960
