20
TSA8_9_CCl3_Me_Cl
C          1.43300       -0.04950        0.06440
C          1.77460       -1.21330        0.66240
C          2.14630        0.60930       -1.09830
H          0.55850        0.46230        0.45770
C          2.95760       -2.05130        0.25410
C         -0.76540       -4.10250        3.23130
C          0.07130       -3.73090        2.25650
C         -0.10540       -2.44070        1.51020
O          1.01360       -1.65360        1.69300
Cl        -0.52090       -5.62000        4.08040
H         -1.60620       -3.47690        3.51510
H          0.90480       -4.37470        1.99050
H         -0.99410       -1.88480        1.87810
H         -0.26580       -2.67160        0.43280
Cl         2.12840       -0.43080       -2.54640
Cl         1.30510        2.12310       -1.52180
Cl         3.82600        1.03380       -0.67770
H          3.02170       -2.95190        0.90000
H          3.90160       -1.48430        0.37360
H          2.85290       -2.39590       -0.79320
