20
TSA8_9_CCl3_Me_Cl
C          1.04380       -1.27220        0.91110
C          2.01590       -2.49450        0.80050
C          1.68200        0.15460        1.04630
H          0.48110       -1.24290       -0.04910
C          3.20050       -2.31400       -0.14550
C         -0.00390       -1.61570        2.02200
C         -0.39910       -3.10380        2.00450
C         -0.04650       -3.73610        0.66260
O          1.35720       -3.71260        0.42710
Cl         0.50430       -1.22790        3.69730
H         -0.91180       -1.00850        1.81810
H          0.19840       -3.67370        2.75190
H         -0.59630       -3.25200       -0.17280
H         -0.37130       -4.79680        0.69570
Cl         2.45180        0.67900       -0.48030
Cl         0.43020        1.38990        1.36740
Cl         2.91720        0.25160        2.33510
H          3.81420       -3.23950       -0.14180
H          3.86190       -1.49550        0.19870
H          2.84800       -2.12610       -1.18160
