21
TSA8_9_I_Et_OH
C          1.97130       -0.16480       -0.21560
C          1.47490       -0.78420       -1.31780
I          2.54760        1.85690        0.09290
H          2.09720       -0.74540        0.69320
C          1.11500       -2.24690       -1.22740
C          3.85910        0.74750       -4.49070
C          3.28920        0.74370       -3.27660
C          1.80550        0.93550       -3.09160
O          1.25520       -0.19890       -2.53400
O          5.18870        0.55540       -4.63960
H          3.25520        0.90040       -5.38000
H          3.90810        0.58340       -2.39970
H          1.31720        1.09540       -4.07680
H          1.57620        1.83270       -2.49110
C          1.94730       -3.05790       -2.21890
H          0.03650       -2.37010       -1.46320
H          1.29200       -2.65640       -0.20800
H          1.76440       -2.71040       -3.25840
H          1.67150       -4.13050       -2.15110
H          3.02900       -2.95050       -1.98660
H          5.77830        0.40110       -3.88680
