20
TSA8_9_CN_CF3_NH2
C          2.61300        0.22900       -1.79560
C          1.72740       -1.02440       -1.96600
C          2.18700        1.02780       -0.61490
H          3.63910       -0.14160       -1.58190
C          1.69990       -2.20810       -1.04540
C          2.57260        1.09510       -3.13780
C          1.46360        2.11170       -3.00410
C          0.18750        1.76350       -3.12990
O          1.09040       -1.17940       -2.99500
N          3.84430        1.73740       -3.53360
H          2.36200        0.40830       -3.98770
H          1.70030        3.09050       -2.59340
H         -0.09390        0.77750       -3.46670
H         -0.58470        2.46440       -2.85420
N          1.83490        1.71730        0.26070
F          0.38600       -2.58900       -0.82610
F          2.34640       -3.24140       -1.70110
F          2.32260       -1.97740        0.16370
H          3.79470        2.78160       -3.48800
H          3.97220        1.58400       -4.57040
