21
TSA8_9_CH2F_CHF2_CN
C          1.64950       -1.08010       -1.19200
C          1.55910       -1.65810        0.25840
C          2.18820        0.34590       -1.47690
H          0.58070       -0.87350       -1.37030
C          2.25090       -1.24440        1.54120
C          1.95130       -2.11600       -2.35170
C          1.13910       -3.36910       -2.15040
C         -0.19680       -3.30470       -2.19650
O          0.72050       -2.52960        0.43410
C          3.34490       -2.46590       -2.69530
H          1.59340       -1.65920       -3.29400
H          1.62160       -4.32230       -1.93910
H         -0.80480       -4.18010       -2.02010
H         -0.69530       -2.36170       -2.40680
F          3.47000        0.58520       -1.02890
H          1.49630        1.10640       -1.04720
H          2.15980        0.52290       -2.57850
F          2.77990       -2.36860        2.16060
F          3.24410       -0.30690        1.37850
H          1.47420       -0.84140        2.23270
N          4.41130       -2.78110       -3.02380
