21
TSA8_9_CH2F_CHF2_CN
C          2.22390       -1.17500       -1.23370
C          1.66190       -1.99170        0.03260
C          1.96470        0.26330       -1.83450
H          2.30330       -0.49620       -0.39590
C          1.84400       -1.59620        1.54130
C          2.10510       -2.17800       -2.47130
C          1.38260       -3.47060       -2.12790
C          0.11050       -3.05240       -1.39630
O          0.34720       -2.48700       -0.12340
C          3.35050       -2.53400       -3.16790
H          1.44750       -1.73790       -3.25090
H          1.99690       -4.13650       -1.47660
H         -0.53670       -3.93900       -1.28190
H         -0.43590       -2.29540       -2.00220
F          2.97110        1.17440       -1.48230
H          0.96410        0.67370       -1.56450
H          1.99600        0.28030       -2.94390
F          1.92350       -2.73980        2.31700
F          2.97240       -0.82610        1.77190
H          0.95220       -1.01750        1.86190
N          4.27890       -2.85870       -3.78020
