21
TSA8_9_NO2_NO2_CF3
C          2.85390        1.73410       -0.18670
C          1.42250        1.54470       -0.77100
N          3.00360        0.89010        0.98650
H          3.61630        1.44120       -0.94600
N          1.44940        0.82670       -2.02900
C          3.09010        3.23430        0.12740
C          1.92130        3.82920        0.93400
C          0.57070        3.30100        0.41420
O          0.71400        2.77200       -0.88990
C          4.45690        3.54320        0.76130
H          3.06660        3.75290       -0.85840
H          1.98160        3.66270        2.03110
H         -0.17110        4.12560        0.41710
H          0.15910        2.52480        1.10300
O          3.84400        0.04170        1.00690
O          2.20480        1.02910        2.02290
O          0.99540        1.31580       -3.01930
O          1.95850       -0.38510       -2.07970
F          4.56700        2.95910        2.01060
F          5.47120        3.06620       -0.05010
F          4.60820        4.91200        0.89610
