21
TSA8_9_Cl_OH_Et
C          3.13020        0.31810       -1.44170
C          1.57380        0.39330       -1.35870
Cl         3.81130        0.94530        0.09290
H          3.44430       -0.74570       -1.51550
O          0.99400       -0.75950       -1.90890
C          3.57490        1.11590       -2.68560
C          3.10970        2.58280       -2.56950
C          1.79380        2.68910       -1.77460
O          0.99070        1.54660       -1.97470
C          5.05290        0.96270       -3.12330
H          2.99410        0.68150       -3.53020
H          3.83990        3.25840       -2.07900
H          1.24960        3.60150       -2.09300
H          1.98650        2.82080       -0.68590
H          1.17030       -0.73530       -2.88520
C          6.11600        1.47960       -2.15210
H          5.18140        1.50400       -4.08630
H          5.25620       -0.11390       -3.31310
H          5.98490        2.55990       -1.94260
H          7.11830        1.34020       -2.60940
H          6.10970        0.90590       -1.20640
