21
TSA8_9_CH2F_I_OMe
C          2.83370       -0.31710        1.29660
C          1.35930       -0.01400        1.45350
C          3.07630       -0.70800       -0.17890
H          3.37540        0.63030        1.50430
I          0.73410        1.93210        1.98580
C          3.26670       -1.36190        2.38200
C          2.70390       -2.76030        2.16450
C          1.83010       -3.31640        3.01080
O          0.51630       -0.87860        1.27110
O          4.65700       -1.34660        2.69820
H          2.81350       -0.97380        3.32400
H          2.99910       -3.33860        1.29630
H          1.48620       -2.79220        3.89640
H          1.44830       -4.31410        2.81560
F          4.41210       -0.79230       -0.50140
H          2.64810        0.08000       -0.83570
H          2.56990       -1.66470       -0.42850
C          5.51970       -1.91250        1.73670
H          6.28850       -2.50770        2.27020
H          6.04740       -1.09860        1.19900
H          5.03730       -2.60390        1.02070
