21
TSA8_9_CH2F_I_OMe
C          1.70490        0.07500        0.13150
C          1.36950        0.25050        1.43560
C          2.06390       -1.17490       -0.62630
H          1.70880        0.96810       -0.48630
I          0.89840        2.22590        2.02400
C          3.95760       -2.51420        3.47960
C          3.21980       -2.04450        2.45510
C          1.71360       -1.98510        2.52510
O          1.28370       -0.67720        2.43530
O          5.31810       -2.56620        3.46240
H          3.45720       -2.86940        4.37520
H          3.70640       -1.68570        1.55710
H          1.36840       -2.38080        3.50390
H          1.21890       -2.62010        1.76790
F          3.32780       -1.02690       -1.16530
H          1.33820       -1.29750       -1.45710
H          2.04850       -2.10620       -0.05550
C          6.13240       -2.13330        2.43560
H          7.19210       -2.29970        2.71830
H          5.98040       -1.04700        2.25820
H          5.91860       -2.70510        1.50750
