17
TSA8_9_CH2F_I_Br
C          1.80520       -0.03840       -0.01930
C          1.03960        0.07640        1.07730
C          2.27130       -1.35620       -0.57140
H          2.10280        0.86120       -0.54860
I          0.47270        2.03540        1.69150
C         -0.07670       -2.72050        4.62640
C         -0.37990       -2.40510        3.36220
C         -0.21470       -1.00970        2.83470
O          0.65030       -1.02970        1.76280
Br        -0.30050       -4.51000        5.25990
H          0.29920       -1.97030        5.31560
H         -0.75690       -3.17430        2.69480
H          0.18090       -0.33580        3.62640
H         -1.20730       -0.63440        2.50440
F          3.65270       -1.37650       -0.59760
H          1.88850       -1.46830       -1.60730
H          1.91320       -2.21930        0.02710
