19
TSA8_9_CF3_NH2_I
C          1.71030       -1.86420        0.41430
C          0.90810       -0.80530        1.20650
C          1.44940       -1.67180       -1.10190
H          2.79750       -1.68150        0.56080
N          1.38810       -0.63660        2.57740
C          1.36440       -3.26190        0.99560
C         -0.14870       -3.47670        1.04040
C         -0.79900       -2.30320        1.78340
O         -0.49190       -1.05960        1.16930
I          2.33570       -4.92180        0.04450
H          1.72410       -3.28900        2.04780
H         -0.57150       -3.56960        0.02030
H         -0.50240       -2.30210        2.85570
H         -1.89950       -2.44580        1.76740
F          2.22850       -2.53470       -1.84780
F          0.12240       -1.86410       -1.43650
F          1.79820       -0.38040       -1.45810
H          0.83390        0.12710        3.02500
H          2.38170       -0.31920        2.54350
