18
TSA8_9_OMe_Cl_H
C          0.55270       -1.00230       -0.85570
C          1.42560       -0.89040        0.37440
O          1.29900       -0.70580       -2.02360
H         -0.32910       -0.32520       -0.76720
Cl         0.99540        0.22590        1.66070
C         -0.00180       -2.43040       -0.98950
C         -0.87540       -2.79260        0.18510
C         -0.58980       -3.82020        0.98970
O          2.43550       -1.56780        0.48170
H         -0.62000       -2.49740       -1.91050
H          0.84410       -3.14620       -1.09580
H         -1.76210       -2.19710        0.38290
H          0.28930       -4.43570        0.82580
H         -1.24100       -4.04950        1.82690
C          1.54730        0.68200       -2.12030
H          1.94680        0.89450       -3.13310
H          2.31980        0.99620       -1.38550
H          0.61950        1.28730       -2.01600
