14
TSA8_9_I_H_H
C          1.91750        0.05220        0.21140
C          1.42620        0.38950        1.42240
I          2.59700       -1.81970       -0.53040
H          1.96540        0.83780       -0.53630
H          1.10920        1.42080        1.54300
C          3.86450       -1.92910        4.10510
C          3.27290       -1.59440        2.95450
C          1.77770       -1.67100        2.77400
O          1.26100       -0.41840        2.50940
H          4.94310       -1.85780        4.20000
H          3.28690       -2.27270        4.95780
H          3.89330       -1.25350        2.13310
H          1.30600       -2.03820        3.71050
H          1.49330       -2.39060        1.98430
