20
TSA8_9_Br_CH2F_CHF2
C          2.67740        1.55770       -2.06350
C          1.36250        1.26330       -1.26780
Br         4.22240        1.30360       -0.89580
H          2.80970        0.80670       -2.87280
C          0.35190        0.52550       -2.14780
C          2.58330        2.98160       -2.64600
C          2.39870        4.00660       -1.50920
C          1.64940        3.39030       -0.31490
O          0.71380        2.43200       -0.75460
C          3.73490        3.37190       -3.58690
H          1.65340        3.00310       -3.25670
H          3.35440        4.41960       -1.11930
H          1.13680        4.19660        0.24880
H          2.35070        2.92000        0.40910
F         -0.77490        0.21880       -1.40700
H          0.79330       -0.42160       -2.52300
H          0.05550        1.15540       -3.01330
F          4.94660        3.40660       -2.92100
F          3.81850        2.47230       -4.63450
H          3.53890        4.38090       -4.00800
