17
TSA8_9_H_CF3_F
C          2.75210        1.23750        2.51080
C          1.29680        0.86900        2.16710
H          3.39960        1.07300        1.62150
H          2.83170        2.30080        2.82310
C          0.70630        1.77220        1.08370
C          3.20380        0.33820        3.66420
C          2.98240       -1.12780        3.28970
C          1.51890       -1.31150        2.86170
O          1.22550       -0.48280        1.75370
F          4.53740        0.56170        3.95640
H          2.59650        0.57060        4.56660
H          3.64670       -1.40420        2.44150
H          0.82010       -1.11270        3.70670
H          1.36980       -2.36980        2.56220
F         -0.60930        1.41330        0.85610
F          0.74110        3.09190        1.49640
F          1.42040        1.64250       -0.09450
