23
TSA8_9_CHF2_CBr3_Me
C          2.49900       -2.51540        0.00630
C          0.96930       -2.19920       -0.14540
C          3.31910       -1.26640       -0.39110
H          2.73870       -2.72220        1.07260
C          0.19760       -2.10470        1.18390
C          2.82180       -3.80740       -0.79420
C          2.30590       -3.71810       -2.24100
C          0.94110       -3.01140       -2.29180
O          0.30520       -3.09220       -1.03460
C          4.28310       -4.26090       -0.74480
H          2.22600       -4.61130       -0.30530
H          2.99990       -3.21740       -2.94960
H          0.31210       -3.48250       -3.07540
H          1.05060       -1.94540       -2.60020
F          4.66430       -1.45160       -0.13380
F          3.15200       -0.93850       -1.72310
H          2.98830       -0.40060        0.21960
Br         0.96490       -0.77310        2.36970
Br        -1.63280       -1.57240        0.83150
Br         0.16660       -3.81930        2.09620
H          4.61460       -4.36600        0.31020
H          4.94610       -3.54480       -1.27160
H          4.38600       -5.24840       -1.24400
