20
TSA8_9_Br_CF3_CHF2
C          2.00200        1.35310       -1.83030
C          0.77450        0.74200       -2.46470
Br         1.80600        1.17540        0.10120
H          2.90450        0.77260       -2.12400
C          0.88680       -0.47310       -3.34570
C          2.19840        2.84140       -2.23000
C          3.39770        3.41320       -1.50420
C          3.28660        4.43860       -0.65280
O         -0.32470        1.23100       -2.24540
C          2.41280        3.03380       -3.74490
H          1.28500        3.40820       -1.93880
H          4.37880        2.97940       -1.67730
H          2.32520        4.90030       -0.45030
H          4.16710        4.82290       -0.14870
F         -0.36240       -0.85720       -3.80220
F          1.69400       -0.19340       -4.43190
F          1.43930       -1.51530       -2.62510
F          3.51920        2.32530       -4.18130
F          1.30140        2.63100       -4.46320
H          2.57420        4.11240       -3.96020
