21
TSA8_9_NO2_NH2_CH2F
C          2.89500       -0.21570       -1.54940
C          1.57270       -0.92460       -1.32400
N          3.07090        0.83310       -0.55560
H          3.70600       -0.96850       -1.41580
N          1.54320       -2.24170       -1.00760
C          3.02750        0.30780       -3.01270
C          2.02080        1.38590       -3.36350
C          1.09520        1.21350       -4.31210
O          0.52190       -0.30770       -1.42380
C          4.44580        0.82460       -3.29830
H          2.87280       -0.57180       -3.67940
H          2.05090        2.33790       -2.84450
H          1.02230        0.28390       -4.86720
H          0.39780        2.01420       -4.53780
O          3.98240        0.77510        0.21410
O          2.20170        1.81530       -0.44640
H          0.64460       -2.72220       -0.85320
H          2.41330       -2.78560       -0.91380
F          4.74790        1.92860       -2.52030
H          4.53370        1.10940       -4.36900
H          5.19070        0.02510       -3.09670
