21
TSA8_9_NH2_CH2F_NO2
C          1.81000       -0.18210        0.05120
C          1.45550       -1.22310       -0.75800
N          2.12660        1.14370       -0.34560
H          1.84190       -0.36470        1.12210
C          1.13190       -2.54300       -0.11020
C          4.04440       -0.91320       -4.14660
C          3.35180       -0.43150       -3.09730
C          1.84470       -0.39000       -3.10360
O          1.34920       -1.22350       -2.12200
N          5.46510       -0.99260       -4.15230
H          3.50810       -1.26740       -5.02300
H          3.87630       -0.08130       -2.21380
H          1.46370       -0.76870       -4.07590
H          1.43560        0.63170       -3.02530
H          2.13100        1.48180       -1.30680
H          2.35410        1.83180        0.38630
F         -0.16130       -2.91150       -0.43050
H          1.22940       -2.51990        0.99650
H          1.83210       -3.31200       -0.49820
O          6.10730       -0.63990       -3.20760
O          6.08170       -1.48610       -5.20390
