26
TSA8_9_Et_CBr3_CF3
C          2.51450       -1.79820       -0.83100
C          1.33550       -2.43700       -0.10000
C          2.20270       -0.28990       -1.02830
H          3.39910       -1.85460       -0.15910
C          1.45900       -2.93100        1.33290
C          2.88830       -2.50930       -2.18200
C          1.76070       -2.45200       -3.19670
C          1.87950       -1.79840       -4.35690
O          0.24710       -2.48910       -0.65440
C          3.33630       -3.97190       -2.00330
H          3.77590       -1.98530       -2.59410
H          0.82560       -2.96230       -2.99210
H          1.05050       -1.78670       -5.05720
H          2.79310       -1.27360       -4.61760
C          3.39400        0.52560       -1.53720
H          1.92030        0.14470       -0.04460
H          1.34040       -0.15440       -1.71650
H          4.25450        0.42120       -0.84250
H          3.10990        1.59790       -1.58640
H          3.70070        0.21550       -2.55540
Br         1.96830       -1.46800        2.49910
Br        -0.22580       -3.64110        1.99840
Br         2.78280       -4.33250        1.51410
F          4.40980       -4.03590       -1.13320
F          2.30310       -4.75660       -1.52120
F          3.74110       -4.48530       -3.22350
