22
TSA8_9_NH2_CF3_CH2F
C          1.82000        0.18590        0.05250
C          1.47130        0.70480        1.26050
N          1.90580       -1.19810       -0.24520
H          2.01200        0.85920       -0.77660
C          1.29050        2.19980        1.41700
C          3.54470        0.56750        4.17280
C          3.40960       -0.44860        3.31010
C          2.05950       -1.00610        2.95330
O          1.24450       -0.03340        2.38880
C          4.89730        1.10780        4.52440
H          2.66560        1.01360        4.62990
H          4.29150       -0.89450        2.85790
H          1.57120       -1.37850        3.87810
H          2.20200       -1.87910        2.30240
H          1.54410       -1.92660        0.37680
H          2.19240       -1.48570       -1.19170
F          0.00110        2.45510        1.84380
F          2.17470        2.66990        2.36890
F          1.50610        2.89460        0.23850
F          5.66620        0.11480        5.10390
H          4.78930        1.94620        5.24360
H          5.40450        1.48180        3.61020
