17
TSA8_9_F_Me_F
C          1.87380        1.39700        1.48040
C          0.72350        2.25300        1.01800
F          1.44430        0.08270        1.53320
H          2.70780        1.46560        0.74760
C          0.82880        3.05210       -0.24600
C          2.38370        1.86730        2.85600
C          3.55680        1.05480        3.34550
C          3.46040       -0.24460        3.64710
O         -0.30650        2.29310        1.67440
F          2.78410        3.18960        2.75280
H          1.56900        1.80800        3.61000
H          4.51640        1.54720        3.47900
H          2.52250       -0.78070        3.55320
H          4.33190       -0.78330        4.00540
H          1.66910        3.77230       -0.16180
H         -0.10950        3.61670       -0.43200
H          1.01330        2.37160       -1.10330
