17
TSA8_9_I_Br_CH2F
C          2.79690       -1.76850       -0.66570
C          1.31180       -1.51530       -0.62450
I          3.80990       -0.13950        0.31760
H          2.99740       -2.67850       -0.05960
Br         0.16040       -2.71240        0.32340
C          3.29730       -2.03920       -2.10920
C          3.12250       -0.83080       -3.00560
C          2.34460       -0.86090       -4.09210
O          0.82760       -0.54270       -1.18190
C          4.77140       -2.46900       -2.11310
H          2.70940       -2.89760       -2.50810
H          3.64590        0.08990       -2.76540
H          1.80350       -1.75930       -4.37230
H          2.24560        0.02440       -4.71150
F          5.16990       -2.79070       -3.39910
H          4.90620       -3.36640       -1.47220
H          5.42740       -1.65950       -1.72990
