17
TSA8_9_I_Br_CH2F
C          1.80940       -0.14760       -0.05950
C          1.37090       -1.25810       -0.68950
I          2.39930        1.72590       -0.86170
H          1.84330       -0.16130        1.02490
Br         0.84070       -2.73570        0.40520
C          3.66470       -2.79530       -2.92670
C          3.44290       -1.47020       -2.91440
C          2.04560       -0.93360       -3.04610
O          1.25080       -1.43570       -2.03540
C          5.04080       -3.36610       -2.77880
H          2.82830       -3.48280       -3.03720
H          4.27250       -0.77560       -2.80410
H          1.63080       -1.26790       -4.02110
H          2.03540        0.16900       -3.07180
F          5.84690       -2.92480       -3.81280
H          4.98830       -4.47120       -2.80660
H          5.47770       -3.05060       -1.80850
