17
TSA8_9_Me_Br_H
C          1.85510       -0.00870        0.04460
C          1.17420       -0.97940        0.67190
C          2.06550        0.02870       -1.44270
H          2.27590        0.80300        0.63040
Br         0.98320       -0.86490        2.58470
C         -0.25700       -5.26560       -0.46810
C         -0.55400       -3.96470       -0.55100
C         -0.15790       -2.99080        0.52000
O          0.63490       -2.00800       -0.03330
H         -0.55970       -5.94330       -1.25990
H          0.28460       -5.66710        0.38360
H         -1.09980       -3.60120       -1.41610
H          0.39430       -3.50530        1.33710
H         -1.07920       -2.53210        0.93960
H          1.59950       -0.83430       -1.96240
H          3.15400        0.02470       -1.65810
H          1.62170        0.96210       -1.84740
