22
TSA8_9_Me_NH2_Me
C          2.92710        0.19230        1.47870
C          1.50060        0.82640        1.59950
C          2.85900       -1.10910        0.65900
H          3.59480        0.87710        0.90870
N          1.53980        2.23300        1.21480
C          3.49660        0.00370        2.90240
C          2.55150       -0.87060        3.74700
C          1.08010       -0.58300        3.40120
O          0.93990        0.73120        2.91040
C          4.93720       -0.51470        2.94670
H          3.50380        1.01610        3.36650
H          2.72490       -1.96310        3.63090
H          0.45900       -0.72460        4.30920
H          0.68220       -1.30670        2.65480
H          2.22460       -1.88050        1.13670
H          3.87280       -1.53470        0.51470
H          2.44120       -0.89300       -0.34740
H          0.57790        2.62970        1.31070
H          1.79490        2.29170        0.20230
H          5.60220        0.16730        2.37520
H          5.01290       -1.53670        2.52260
H          5.29150       -0.54680        3.99920
