19
TSA8_9_Br_CHF2_NH2
C          2.93520        1.22940        1.54190
C          1.42950        1.23720        1.40280
Br         3.68790        0.04600        0.18830
H          3.28600        2.25740        1.30210
C          0.71400        2.52240        1.08750
C          3.47710        0.91340        2.96710
C          3.25560       -0.51190        3.44850
C          2.06460       -0.99910        3.80720
O          0.79120        0.20030        1.49340
N          4.91280        1.21190        2.99540
H          2.99410        1.60820        3.69040
H          4.11690       -1.16640        3.55560
H          1.16820       -0.39340        3.78100
H          1.98690       -2.02200        4.16300
F         -0.64910        2.31210        0.97170
F          0.94430        3.44210        2.09390
H          1.09520        2.93060        0.12770
H          5.44540        0.54820        2.38830
H          5.27030        1.12600        3.97490
