19
TSA8_9_Br_CHF2_NH2
C          2.00630        0.25230        0.18350
C          1.48750        0.90920        1.25080
Br         2.54220       -1.58660        0.07100
H          2.12270        0.78370       -0.75570
C          1.09050        2.35250        1.09030
C          3.57300        1.05410        4.15080
C          3.39750       -0.07070        3.43990
C          2.01300       -0.58790        3.16340
O          1.27840        0.37100        2.48890
N          4.86760        1.56150        4.41710
H          2.70930        1.59370        4.53130
H          4.25530       -0.61650        3.05670
H          1.51570       -0.79080        4.13510
H          2.03610       -1.54840        2.62480
F         -0.25070        2.50240        1.38240
F          1.83190        3.12060        1.96930
H          1.27300        2.72920        0.06130
H          5.71110        1.08260        4.06920
H          4.97180        2.42850        4.96350
