22
TSA8_9_CBr3_CBr3_NH2
C          2.27670       -2.14260       -0.02430
C          1.58170       -1.19220        1.03730
C          2.31230       -1.53190       -1.48140
H          3.34770       -2.23910        0.25530
C          2.50830       -0.74750        2.20230
C          1.64900       -3.56080        0.13350
C          0.11390       -3.53870        0.03690
C         -0.45710       -2.26050        0.66590
O          0.42160       -1.76770        1.64550
N          2.23080       -4.58240       -0.73520
H          1.87270       -3.85740        1.18200
H         -0.30050       -3.66260       -0.98540
H         -1.44270       -2.49480        1.11910
H         -0.66340       -1.46650       -0.07980
Br         0.62650       -1.42200       -2.43740
Br         3.00350        0.27990       -1.49070
Br         3.54260       -2.50730       -2.62980
Br         4.15500        0.11850        1.65300
Br         1.55460        0.53590        3.30060
Br         2.99450       -2.24870        3.33650
H          1.86160       -4.47330       -1.70560
H          1.92790       -5.52550       -0.39890
