19
TSA8_9_NO2_NO2_OH
C          1.89730        0.03690        0.01480
C          1.52170        0.98630       -0.90880
N          1.66900       -0.03960        1.42550
H          2.45550       -0.80970       -0.37420
N          1.86480        0.74890       -2.28150
C          2.02720        4.69260        1.28710
C          1.73150        3.39050        1.15200
C          0.50460        2.92820        0.40410
O          0.85300        2.16570       -0.69060
O          3.12800        5.09440        1.96050
H          1.38050        5.45020        0.85520
H          2.39450        2.65350        1.59180
H         -0.04970        3.81160        0.02110
H         -0.23140        2.40840        1.03830
O          2.15500       -0.94850        2.02750
O          0.83960        0.74650        2.06230
O          1.56170        1.55150       -3.11230
O          2.49950       -0.34240       -2.65720
H          3.74280        4.46960        2.37170
