19
TSA8_9_NO2_NO2_OH
C          2.46580        1.49530        0.28730
C          1.27210        1.35750       -0.70160
N          2.34050        0.49500        1.33310
H          3.43360        1.34650       -0.24650
N          1.68590        0.79500       -1.97060
C          2.49640        2.92610        0.86260
C          1.11290        3.37730        1.35600
C          0.01110        2.91970        0.37990
O          0.56730        2.57960       -0.87660
O          3.46680        3.04890        1.86820
H          2.76110        3.58680        0.00210
H          0.86080        3.03580        2.38270
H         -0.73750        3.72990        0.26450
H         -0.54970        2.05110        0.80180
O          3.20070       -0.31910        1.48530
O          1.27510        0.45800        2.10470
O          1.50130        1.38990       -2.98950
O          2.24700       -0.39400       -2.00710
H          3.68150        4.01550        1.94030
