20
TSA8_9_CBr3_CF3_F
C          1.42360       -0.51430        0.16160
C          2.03510       -1.12060        1.22580
C          1.99940       -0.14980       -1.19910
H          0.38240       -0.24720        0.27760
C          3.48810       -1.55470        1.24910
C         -1.59170       -1.55980        4.46540
C         -0.33870       -1.61100        4.00690
C         -0.01220       -1.20150        2.60130
O          1.33920       -1.37930        2.37440
F         -1.86420       -1.93480        5.74230
H         -2.40370       -1.22270        3.82750
H          0.45390       -1.95560        4.66500
H         -0.28780       -0.13240        2.46750
H         -0.59180       -1.83370        1.89360
Br         0.61520        0.71480       -2.25290
Br         3.45340        1.12860       -1.10190
Br         2.54000       -1.70550       -2.22160
F          4.33290       -0.47550        1.10100
F          3.77720       -2.14220        2.46910
F          3.74400       -2.48920        0.26910
