20
TSA8_9_CBr3_CF3_F
C          0.94750       -0.28360        1.14920
C          2.12020       -0.97150        1.92210
C          0.66700       -0.79280       -0.31110
H          1.16090        0.80370        1.05560
C          3.55360       -0.81110        1.41430
C         -0.27510       -0.39900        2.09930
C         -0.49700       -1.85080        2.52320
C          0.79850       -2.40410        3.13160
O          1.84570       -2.33270        2.18780
F         -0.03370        0.35620        3.23820
H         -1.19760        0.00860        1.64240
H         -1.33470       -1.92400        3.24960
H          1.07190       -1.87590        4.07410
H          0.63390       -3.46980        3.39420
Br        -0.91520        0.06050       -1.05640
Br         2.07260       -0.27100       -1.54590
Br         0.40850       -2.71380       -0.47810
F          3.80730        0.51050        1.09640
F          4.42190       -1.19720        2.41800
F          3.78520       -1.61800        0.31770
