17
TSA8_9_F_OH_NO2
C          1.19320        1.01330        1.31940
C          1.34490        1.49760       -0.14110
F          2.43370        0.76630        1.87940
H          0.63430        0.05230        1.28070
O          0.34230        0.98060       -0.97180
C          0.45430        2.06340        2.17710
C         -0.59710        2.74600        1.30930
C          0.16160        3.51490        0.19760
O          1.38270        2.90840       -0.23940
N         -0.12690        1.46430        3.36230
H          1.17690        2.85540        2.48440
H         -1.26220        1.96510        0.87820
H          0.44800        4.49000        0.64460
H         -0.51090        3.72830       -0.66010
H          0.83040        0.44980       -1.65080
O         -0.95380        0.60770        3.26720
O          0.24820        1.87230        4.55550
