20
TSA8_9_I_CBr3_CH2F
C          2.66870       -0.09060       -2.82500
C          1.32440       -0.10860       -2.02200
I          4.20570        0.63800       -1.50370
H          2.98030       -1.11840       -3.10730
C          0.64620       -1.48920       -1.94970
C          2.48290        0.75550       -4.10330
C          1.98180        2.16870       -3.75090
C          1.03570        2.12540       -2.53990
O          0.39110        0.87140       -2.47550
C          3.70140        0.78960       -5.03640
H          1.66610        0.26210       -4.67490
H          2.79220        2.89570       -3.52700
H          0.29070        2.94320       -2.62040
H          1.59380        2.31680       -1.59320
Br         1.81440       -2.79720       -1.11590
Br        -0.94900       -1.37160       -0.85340
Br         0.12850       -2.12900       -3.70870
F          4.77820        1.43100       -4.45200
H          3.43780        1.33050       -5.97010
H          3.99830       -0.24570       -5.30750
