20
TSA8_9_CH2F_F_Me
C          1.42890        0.84480        2.42520
C          1.14480        1.47420        1.04850
C          1.36600       -0.69100        2.30790
H          2.46470        1.10450        2.73660
F          1.46290        2.82480        1.01310
C          0.42760        1.45200        3.44410
C         -1.00800        1.28810        2.93000
C         -1.10180        1.88050        1.51800
O         -0.19330        1.24790        0.62970
C          0.57340        0.88920        4.86190
H          0.63490        2.54420        3.50760
H         -1.30200        0.21720        2.90720
H         -0.93870        2.98130        1.53730
H         -2.13380        1.72320        1.14140
F          2.30320       -1.12860        1.38840
H          0.36560       -1.03780        1.97790
H          1.60360       -1.16640        3.28090
H          0.33110       -0.19290        4.89740
H         -0.12250        1.41770        5.54820
H          1.61060        1.04390        5.22760
