23
TSA8_9_Br_Et_Me
C          3.01030        0.14680        1.68220
C          1.55020        0.66820        1.49240
Br         3.19180       -1.54530        0.73090
H          3.74170        0.83730        1.20880
C          1.46920        2.10100        0.94400
C          3.30260        0.00300        3.18880
C          2.25710       -0.91270        3.85500
C          0.87830       -0.75130        3.19250
O          0.74130        0.54850        2.66220
C          4.73010       -0.45950        3.49420
H          3.17840        1.01490        3.63260
H          2.52090       -1.99280        3.82610
H          0.08280       -0.95260        3.93940
H          0.73400       -1.50700        2.38530
C          2.00770        3.15060        1.91660
H          0.40420        2.33190        0.72740
H          2.03220        2.16000       -0.01220
H          1.43790        3.12570        2.86930
H          1.89880        4.15970        1.46610
H          3.08310        2.97950        2.12850
H          5.46210        0.24610        3.04700
H          4.91660       -1.47560        3.08770
H          4.89260       -0.48440        4.59300
