17
TSA8_9_F_F_CH2F
C          3.07050       -0.14730       -1.98400
C          1.63500       -0.19600       -1.53340
F          3.89560       -0.09280       -0.87240
H          3.28040       -1.09300       -2.52970
F          0.86470       -1.26900       -1.85070
C          3.35020        1.03890       -2.93710
C          3.16000        2.36860       -2.23930
C          2.25380        3.26140       -2.64900
O          1.15690        0.71000       -0.86920
C          4.77570        0.96270       -3.50490
H          2.65120        0.95370       -3.80040
H          3.77870        2.60810       -1.37880
H          1.61480        3.06320       -3.50400
H          2.14700        4.20470       -2.12330
F          5.72350        1.05520       -2.49960
H          4.93860        1.79220       -4.22630
H          4.91870        0.00400       -4.04760
