17
TSA8_9_F_F_CH2F
C          3.23380        0.10790       -1.96970
C          1.69700        0.12110       -1.74280
F          3.87580        0.73800       -0.91530
H          3.59090       -0.94500       -1.99820
F          1.14660       -0.94920       -2.42580
C          3.52290        0.84360       -3.28350
C          3.01960        2.29970       -3.18310
C          1.87030        2.43290       -2.16600
O          1.02860        1.30120       -2.19860
C          4.99760        0.77870       -3.70050
H          2.92830        0.33440       -4.07460
H          3.80720        3.01870       -2.86760
H          1.28720        3.34850       -2.39540
H          2.26060        2.57090       -1.13220
F          5.80920        1.38600       -2.75760
H          5.13550        1.28930       -4.67740
H          5.31060       -0.28100       -3.81420
