15
TSA8_9_OH_Cl_I
C          1.92930        0.27030        0.27180
C          1.28350        0.78910        1.33500
O          2.59570       -0.89930        0.32210
H          1.90270        0.80940       -0.67210
Cl         0.43260        2.30920        1.11960
C          4.39450       -0.97500        3.86770
C          3.43980       -0.23200        3.30340
C          2.04180       -0.75960        3.11780
O          1.23100        0.22020        2.57630
I          6.33230       -0.18460        4.14440
H          4.18750       -1.98690        4.20120
H          3.67560        0.78110        2.98670
H          1.64090       -1.02650        4.11770
H          2.02780       -1.68210        2.50010
H          3.02450       -1.25600       -0.46780
