15
TSA8_9_OH_Cl_I
C          2.97210       -0.23680        1.04110
C          1.69290        0.54870        1.37730
O          2.56430       -1.49380        0.56250
H          3.54640        0.27350        0.23370
Cl         1.98480        2.26030        1.79880
C          3.83730       -0.41660        2.31130
C          2.97900       -0.44540        3.58810
C          1.55870       -0.92950        3.27170
O          0.86270       -0.08020        2.35630
I          5.33410        1.11360        2.51370
H          4.41420       -1.36050        2.20700
H          2.85870        0.58350        3.99130
H          0.99180       -0.94450        4.22590
H          1.58130       -1.97010        2.88350
H          3.33620       -1.88250        0.07330
