20
TSA8_9_CN_Me_NH2
C          2.59420       -1.77340       -0.24280
C          1.75940       -1.96200        1.04910
C          2.14720       -0.60980       -1.03790
H          3.62770       -1.56180        0.09340
C          1.60900       -0.93680        2.13170
C          2.55220       -3.08400       -1.12330
C          1.37740       -3.03370       -2.09450
C          0.11390       -3.12140       -1.67960
O          1.24460       -3.04400        1.28280
N          3.82270       -3.31320       -1.83610
H          2.44330       -3.97490       -0.46420
H          1.56190       -2.83610       -3.14740
H         -0.12340       -3.30770       -0.64370
H         -0.69660       -3.00080       -2.38560
N          1.78240        0.25970       -1.72180
H          2.07700       -1.34570        3.05580
H          0.52610       -0.79700        2.34610
H          2.07210        0.03990        1.89500
H          3.73670       -3.19390       -2.86940
H          4.07780       -4.32740       -1.72400
