20
TSA8_9_CN_Me_NH2
C          1.67270       -0.05100        0.09430
C          1.56660       -1.20530        0.80470
C          1.82580        0.07260       -1.34050
H          1.58920        0.89130        0.63050
C          1.42910       -1.10520        2.29070
C          2.69400       -4.43940       -1.62470
C          1.97540       -3.33560       -1.87270
C          0.93930       -2.84110       -0.91260
O          1.53120       -2.46480        0.27650
N          3.66140       -4.90090       -2.55180
H          2.53130       -5.00250       -0.70940
H          2.12670       -2.78110       -2.79240
H          0.18820       -3.64180       -0.72600
H          0.37790       -1.99760       -1.34980
N          1.94840        0.22180       -2.47890
H          2.05040       -1.87500        2.79410
H          0.36180       -1.27260        2.53470
H          1.73950       -0.10570        2.66510
H          3.84530       -4.39330       -3.43010
H          4.18750       -5.76380       -2.35390
