23
TSA8_9_Et_CBr3_Cl
C          1.76330       -1.24660       -0.94120
C          0.64320       -1.53810        0.09320
C          1.62420        0.25860       -1.31410
H          2.75870       -1.36830       -0.46470
C          0.87110       -2.56120        1.23620
C          1.61920       -2.27000       -2.09830
C          0.20080       -2.22980       -2.65920
C         -0.79430       -2.47790       -1.51710
O         -0.66370       -1.52720       -0.47330
Cl         2.82970       -2.13050       -3.39950
H          1.78430       -3.28570       -1.69410
H         -0.00290       -1.25150       -3.14270
H         -0.70670       -3.50940       -1.12640
H         -1.81890       -2.39840       -1.93550
C          2.74340        0.83490       -2.18070
H          1.65730        0.83310       -0.36140
H          0.64450        0.47210       -1.79080
H          3.73230        0.64490       -1.71180
H          2.60240        1.93280       -2.27020
H          2.72220        0.43200       -3.20790
Br         2.42480       -2.03810        2.27250
Br        -0.64240       -2.50870        2.44660
Br         1.13060       -4.40840        0.69570
