16
TSA8_9_Br_NH2_Cl
C          2.99640        1.31400        0.81210
C          1.45250        1.50710        0.95660
Br         3.44210       -0.58570        0.77230
H          3.34540        1.71380       -0.16470
N          1.01210        2.61660        0.11750
C          3.68660        2.04300        1.96940
C          3.20180        1.48930        3.31890
C          1.74760        0.99470        3.22590
O          1.01970        1.76530        2.29680
Cl         5.46790        1.99200        1.85850
H          3.37870        3.10970        1.90960
H          3.81510        0.63950        3.69060
H          1.27680        1.05450        4.22860
H          1.69980       -0.07860        2.93520
H         -0.02110        2.72470        0.23380
H          1.17600        2.35840       -0.88230
