21
TSA8_9_NO2_CBr3_NO2
C          2.30160       -1.96080       -0.17510
C          1.49690       -1.26390        0.91000
N          2.41210       -1.09620       -1.34220
H          3.32390       -2.14100        0.22990
C          2.12790       -0.91870        2.24230
C          1.71600       -3.37040       -0.51800
C          0.32060       -3.30120       -1.10510
C         -0.73840       -3.83000       -0.48430
O          0.32860       -0.97150        0.69840
N          2.56770       -4.12380       -1.42890
H          1.68300       -3.93610        0.44090
H          0.16720       -2.82210       -2.06590
H         -0.63950       -4.32610        0.47590
H         -1.72050       -3.76590       -0.94170
O          3.48560       -0.70970       -1.69550
O          1.33880       -0.67100       -1.97390
Br         3.62790        0.28090        1.97390
Br         0.87350       -0.03870        3.44000
Br         2.75640       -2.52680        3.12560
O          3.56980       -3.65450       -1.87890
O          2.24950       -5.36400       -1.73380
