21
TSA8_9_NO2_CBr3_NO2
C          2.41530       -2.16510       -0.21060
C          1.38610       -1.54680        0.79280
N          2.43530       -1.37630       -1.43270
H          3.43810       -2.16640        0.23100
C          2.01660       -0.91340        2.04440
C          2.04700       -3.64570       -0.46730
C          0.56570       -3.80830       -0.84900
C         -0.31450       -2.85250       -0.02270
O          0.35830       -2.46200        1.15760
N          2.92400       -4.28730       -1.42770
H          2.16370       -4.15760        0.51580
H          0.34460       -3.66060       -1.92790
H         -1.27190       -3.35480        0.22470
H         -0.59630       -1.95340       -0.62000
O          3.44810       -0.85080       -1.78480
O          1.34440       -1.21240       -2.14960
Br         3.29550        0.46590        1.56540
Br         0.63490       -0.07680        3.11590
Br         2.90370       -2.25450        3.13530
O          2.95360       -3.92260       -2.56480
O          3.68700       -5.29050       -1.05070
