23
TSA8_9_CH2F_CCl3_CBr3
C          2.68020       -1.75660        0.17880
C          1.40650       -2.24740        0.86100
C          2.31170       -0.56360       -0.72800
H          3.35560       -1.34510        0.95830
C          1.15950       -2.02170        2.34550
C          3.47430       -2.84060       -0.64390
C          2.64050       -3.39350       -1.78990
C          2.96140       -3.17800       -3.06980
O          0.52660       -2.75790        0.18280
C          4.09120       -4.00890        0.17930
H          4.35070       -2.30320       -1.07140
H          1.75830       -3.98720       -1.57760
H          2.34240       -3.59140       -3.85930
H          3.83400       -2.59240       -3.34140
F          3.44900       -0.00430       -1.28430
H          1.80060        0.22370       -0.13440
H          1.62610       -0.87520       -1.54430
Cl         2.39100       -2.80610        3.36020
Cl         1.18030       -0.27590        2.70070
Cl        -0.43470       -2.65580        2.84880
Br         5.21160       -5.10510       -0.97410
Br         5.27530       -3.34780        1.57100
Br         2.77880       -5.21030        0.96830
