23
TSA8_9_CH2F_CCl3_CBr3
C          1.61410       -0.04170        0.03190
C          1.40560       -1.30500        0.49670
C          1.77690        0.36400       -1.40830
H          1.64050        0.79190        0.72160
C          1.16060       -1.59070        1.97160
C          4.23700       -4.21560       -0.64630
C          2.92300       -4.07080       -0.89500
C          2.33720       -2.73800       -1.26210
O          1.39090       -2.40340       -0.31090
C          4.90500       -5.51090       -0.24830
H          4.88360       -3.34550       -0.72510
H          2.24010       -4.90910       -0.82580
H          1.84960       -2.82050       -2.25590
H          3.14270       -1.97290       -1.31450
F          3.02330        0.93420       -1.58740
H          0.99890        1.11750       -1.64920
H          1.64430       -0.46000       -2.12930
Cl         2.41510       -2.71470        2.55310
Cl         1.17130       -0.16670        3.05770
Cl        -0.42570       -2.38250        2.14640
Br         6.26640       -5.93090       -1.55760
Br         5.76250       -5.24800        1.46640
Br         3.72480       -7.05260       -0.09330
