23
TSA8_9_CH2F_CCl3_CBr3
C          3.00160       -1.94940        0.16470
C          1.54410       -2.43410        0.41280
C          3.05970       -0.49240       -0.34420
H          3.57560       -1.96160        1.11340
C          0.77880       -1.89490        1.63810
C          3.67120       -2.94110       -0.85580
C          2.60210       -3.77250       -1.61120
C          1.37170       -2.90640       -1.91650
O          0.75120       -2.33020       -0.76550
C          4.71910       -3.87990       -0.19140
H          4.22770       -2.35130       -1.61670
H          2.23820       -4.61230       -0.98060
H          0.62700       -3.54500       -2.43570
H          1.66650       -2.09520       -2.61470
F          4.37350       -0.11250       -0.55500
H          2.64080        0.20070        0.40630
H          2.49960       -0.36850       -1.29300
Cl         1.74440       -2.06050        3.12820
Cl         0.26410       -0.19650        1.45360
Cl        -0.69220       -2.87500        1.85220
Br         5.51340       -5.06970       -1.50780
Br         6.18280       -2.85280        0.57280
Br         3.95460       -4.97240        1.22970
