20
TSA8_9_NO2_CN_Me
C          1.72400       -0.06430        0.01660
C          1.52470       -1.40890       -0.20570
N          1.74820        1.04510       -0.88790
H          1.89390        0.20650        1.05290
C          1.63400       -2.24420        0.96660
C          3.24130       -2.24180       -4.09430
C          2.65020       -1.47200       -3.16920
C          1.25920       -1.77140       -2.68860
O          1.27400       -2.09280       -1.35050
C          4.61060       -1.93020       -4.60740
H          2.72270       -3.10810       -4.49670
H          3.17620       -0.61880       -2.75580
H          0.85260       -2.65100       -3.23260
H          0.53740       -0.96660       -2.88840
O          2.16460        2.08840       -0.47490
O          1.31210        0.99590       -2.11920
N          1.72130       -2.91710        1.90610
H          5.35560       -1.93690       -3.78370
H          4.59940       -0.93080       -5.08990
H          4.89910       -2.68810       -5.36490
