20
TSA8_9_NO2_CN_Me
C          2.86930       -0.84880       -1.34220
C          1.51810       -1.39850       -0.75970
N          2.75190        0.59910       -1.46110
H          3.72130       -1.07740       -0.66260
C          1.73020       -2.00040        0.55900
C          3.12760       -1.59290       -2.68650
C          1.93510       -1.39880       -3.60960
C          0.63530       -1.74520       -2.87290
O          0.87050       -2.33040       -1.60590
C          4.42600       -1.34770       -3.46150
H          3.17820       -2.67130       -2.42210
H          1.88990       -0.36040       -4.01390
H          0.12980       -2.50190       -3.50290
H         -0.05030       -0.87410       -2.79610
O          3.48430        1.30480       -0.83690
O          1.72030        1.14120       -2.07770
N          1.84370       -2.48650        1.60150
H          5.32220       -1.57870       -2.84660
H          4.49650       -0.32260       -3.87910
H          4.44280       -2.06320       -4.32440
