22
TSA8_9_CHF2_CF3_NH2
C          2.37900        1.23400        1.25300
C          1.43010        1.50880        0.10010
C          2.44120       -0.28880        1.51660
H          3.39760        1.54190        0.92670
C          1.95070        2.09470       -1.18450
C          2.02140        2.12880        2.48080
C          0.68060        1.79600        3.10870
C         -0.33090        2.66890        3.13300
O          0.23960        1.25090        0.20770
N          3.07220        2.07110        3.50000
H          2.00130        3.17600        2.09910
H          0.53340        0.82350        3.56680
H         -0.23410        3.65640        2.69380
H         -1.27160        2.39220        3.59840
F          3.38750       -0.59980        2.47390
F          1.21390       -0.79890        1.90040
H          2.74170       -0.80220        0.57800
F          0.92270        2.26520       -2.09570
F          2.53300        3.32290       -0.93120
F          2.89650        1.24630       -1.73030
H          3.04780        1.15860        4.00770
H          2.90330        2.82420        4.20650
