22
TSA8_9_CHF2_CF3_NH2
C          2.07750        0.14990        0.20810
C          1.69240        1.44340       -0.03730
C          1.81860       -0.84000        1.32520
H          2.70040       -0.32150       -0.54450
C          2.13970        2.11050       -1.32380
C          1.82760        3.34140        3.83690
C          1.66120        2.31160        2.99370
C          0.48850        2.24760        2.04650
O          0.92380        2.26960        0.73960
N          2.94020        3.39400        4.71280
H          1.10860        4.15560        3.85720
H          2.39280        1.51040        2.98540
H         -0.15270        3.14290        2.19080
H         -0.18810        1.39790        2.23250
F          3.02960       -1.21950        1.87310
F          0.99530       -0.43220        2.33850
H          1.34780       -1.73820        0.87290
F          1.02250        2.49310       -2.04330
F          2.87370        3.23940       -1.00910
F          2.91870        1.29700       -2.12980
H          3.64780        2.64490        4.72290
H          3.05090        4.19660        5.34880
