19
TSA8_9_Cl_NO2_Me
C          3.00560        0.65270        0.81180
C          1.82570        1.43430        0.19960
Cl         2.33080       -0.65140        1.84060
H          3.58900        0.15400        0.00820
N          2.19530        2.23760       -0.95580
C          3.90710        1.61840        1.60480
C          3.05270        2.36550        2.63120
C          1.90640        3.07200        1.90300
O          1.08490        2.16360        1.17740
C          5.08340        0.90750        2.28230
H          4.33240        2.36460        0.89620
H          2.63780        1.66370        3.38720
H          2.30580        3.87400        1.24880
H          1.27860        3.57950        2.66450
O          1.83890        3.37310       -1.05460
O          2.77180        1.65700       -1.98530
H          4.73140        0.16000        3.02420
H          5.71890        1.65000        2.81050
H          5.70600        0.39210        1.52060
