19
TSA8_9_OH_CN_CF3
C          1.62380        0.05390       -0.01110
C          1.49500        1.38400        0.22140
O          1.56210       -0.87220        0.97580
H          1.66470       -0.30100       -1.03320
C          1.39680        2.24100       -0.92890
C          2.62190        1.56170        4.48900
C          2.28970        1.01440        3.31140
C          1.00740        1.37790        2.63240
O          1.29930        1.98060        1.42230
C          3.88000        1.22810        5.23510
H          1.95360        2.28290        4.94750
H          2.94600        0.30790        2.81530
H          0.41590        2.08850        3.25760
H          0.33660        0.50520        2.48170
H          1.32880       -1.78760        0.75180
N          1.31730        2.93450       -1.85590
F          4.64020        0.27650        4.57720
F          4.63360        2.37490        5.39930
F          3.52850        0.73920        6.47800
