17
TSA8_9_Cl_Br_CF3
C          1.92980        1.24160       -1.92810
C          0.69890        0.77440       -2.65820
Cl         1.58730        1.15510       -0.17240
H          2.76680        0.54190       -2.14170
Br         0.76950       -0.77800       -3.77280
C          2.35020        2.67960       -2.33770
C          3.55310        3.10790       -1.52230
C          3.51310        4.16280       -0.70170
O         -0.35610        1.37870       -2.54330
C          2.70710        2.79300       -3.83730
H          1.49820        3.36740       -2.13410
H          4.47740        2.54260       -1.60450
H          2.60990        4.75450       -0.58950
H          4.39400        4.44050       -0.13250
F          3.74740        1.93670       -4.15630
F          1.61650        2.48720       -4.63100
F          3.09350        4.09040       -4.12710
