19
TSA8_9_I_CH2F_NO2
C          3.09310        0.99730        1.57840
C          1.60700        1.12050        1.33320
I          3.93920       -0.22270        0.01430
H          3.54680        2.00740        1.47330
C          1.00220        2.46440        1.04340
C          3.39540        0.50210        3.01820
C          2.90380       -0.90990        3.25860
C          1.97830       -1.19220        4.18070
O          0.89490        0.12730        1.36210
N          4.81710        0.57740        3.30920
H          2.87060        1.20020        3.71170
H          3.31560       -1.72310        2.66860
H          1.53900       -0.41290        4.79550
H          1.65310       -2.21750        4.32460
F         -0.36390        2.35790        0.84760
H          1.46520        2.88910        0.12820
H          1.19160        3.14760        1.89760
O          5.60330       -0.09400        2.71120
O          5.24660        1.37290        4.26510
