26
TSA8_9_NH2_OMe_Et
C          3.14500        1.07230       -0.52590
C          2.53990        0.05740       -1.48860
N          2.18740        1.42710        0.52990
H          4.00730        0.59490       -0.01820
O          3.28890       -0.44840       -2.50020
C          3.63340        2.37720       -1.23080
C          2.50570        2.99960       -2.02970
C          2.01060        4.20740       -1.74530
O          1.37640       -0.29900       -1.35060
C          4.85580        2.19770       -2.16490
H          3.95650        3.08150       -0.43000
H          2.08540        2.44830       -2.86640
H          1.20270        4.61420       -2.34540
H          2.39860        4.79480       -0.92030
H          1.31500        1.83700        0.12220
H          1.93480        0.57380        1.08060
C          2.79440       -1.30850       -3.45860
H          2.42420       -2.24210       -2.98380
H          3.60230       -1.56350       -4.17410
H          1.96590       -0.82000       -4.01650
C          6.11340        1.72230       -1.43460
H          5.09760        3.18910       -2.60940
H          4.63050        1.50970       -3.00420
H          6.37170        2.42630       -0.61500
H          6.96380        1.68800       -2.14790
H          5.98320        0.70340       -1.01790
