20
TSA8_9_CHF2_CBr3_Br
C          1.72480       -0.10070        0.09420
C          1.44990       -1.29280        0.69730
C          1.84530        0.19650       -1.38240
H          1.85080        0.78510        0.70040
C          1.25040       -1.39660        2.20480
C          3.68760       -5.00870       -0.99850
C          2.76680       -4.30810       -0.33130
C          2.27190       -2.99350       -0.85620
O          1.33380       -2.46930        0.01740
Br         4.31870       -6.67780       -0.31390
H          4.09400       -4.63920       -1.93580
H          2.37660       -4.69570        0.60560
H          1.80070       -3.16580       -1.84640
H          3.14340       -2.31020       -0.96330
F          3.14100        0.57670       -1.67680
F          1.46120       -0.83700       -2.20670
H          1.16480        1.04330       -1.61110
Br         1.38670        0.25580        3.23300
Br        -0.51340       -2.12490        2.54530
Br         2.56110       -2.62140        2.93640
