16
TSA8_9_I_NO2_Cl
C          3.04230        1.21290       -1.17700
C          1.66920        1.31030       -1.82880
I          3.00010       -0.07310        0.56290
H          3.67530        0.71530       -1.94390
N          1.01880        0.19080       -2.25700
C          3.72630        2.56920       -0.83320
C          3.23180        3.25410        0.43260
C          2.00620        3.75500        0.61730
O          1.16140        2.40390       -2.02570
Cl         5.47850        2.26270       -0.61900
H          3.64600        3.26170       -1.69840
H          3.93010        3.36640        1.25820
H          1.23530        3.72440       -0.13240
H          1.76360        4.23200        1.56170
O         -0.04760        0.28160       -2.78780
O          1.56430       -0.99910       -2.12140
