16
TSA8_9_I_NO2_Cl
C          3.02960        1.11910       -0.86650
C          1.50090        1.30980       -1.12500
I          3.31750        0.31670        1.11090
H          3.45620        0.35640       -1.55350
N          1.11410        0.69650       -2.38080
C          3.74470        2.46110       -1.06940
C          3.14420        3.54100       -0.15680
C          1.63370        3.32210        0.03050
O          1.08990        2.68010       -1.10180
Cl         5.51340        2.34840       -0.85500
H          3.55640        2.76970       -2.12130
H          3.60790        3.57680        0.85340
H          1.13710        4.29980        0.19860
H          1.42650        2.71570        0.94250
O          0.60500        1.34460       -3.24560
O          1.26610       -0.59910       -2.54870
