20
TSA8_9_CHF2_CF3_H
C          2.61590       -0.94250       -0.77160
C          1.33350       -1.71070       -0.51040
C          2.36770        0.57380       -0.64890
H          3.33310       -1.21670        0.03430
C          1.25880       -2.68960        0.63000
C          3.33130       -1.32440       -2.09800
C          2.62370       -0.97230       -3.38530
C          1.54710       -1.62260       -3.83450
O          0.34170       -1.51430       -1.19650
H          4.29670       -0.77300       -2.10460
H          3.58300       -2.40740       -2.10370
H          3.03750       -0.17650       -3.99820
H          1.11870       -2.45580       -3.29070
H          1.09700       -1.33310       -4.77850
F          3.55900        1.26800       -0.76690
F          1.48700        1.02000       -1.61910
H          1.93470        0.79880        0.34950
F          0.00070       -3.26220        0.70000
F          2.19590       -3.68870        0.44260
F          1.52030       -2.03650        1.82040
