17
TSA8_9_F_Br_CH2F
C          3.22470        0.85790       -1.29440
C          1.74990        0.55200       -1.31160
F          3.77600        0.37220       -0.11980
H          3.69250        0.32010       -2.14710
Br         1.01530       -0.55760       -2.68510
C          3.51520        2.36890       -1.45610
C          2.97480        3.16690       -0.28880
C          2.05130        4.11980       -0.44850
O          1.01150        0.99080       -0.44390
C          5.02340        2.62690       -1.59250
H          3.03990        2.70650       -2.40550
H          3.34800        2.96170        0.71070
H          1.65110        4.35740       -1.42930
H          1.68830        4.67150        0.41260
F          5.70650        2.23170       -0.45460
H          5.20650        3.71000       -1.76050
H          5.42720        2.07180       -2.46600
