18
TSA8_9_CN_H_CF3
C          2.94170        0.02350        1.42150
C          1.81430        1.05850        1.49250
C          2.41210       -1.07650        0.52240
H          3.74110        0.49900        0.83170
H          1.80510        1.88680        0.79470
C          3.39930       -0.46500        2.90170
C          2.70400       -1.76810        3.06970
C          1.42110       -1.79570        3.37810
O          0.89340        0.98670        2.29510
C          4.86830       -0.67260        3.45610
H          3.01920        0.31460        3.60090
H          3.17210       -2.65280        2.63660
H          0.91840       -0.89340        3.69320
H          0.87140       -2.70870        3.22080
N          1.95330       -1.92410       -0.10920
F          5.71970        0.37840        3.16690
F          4.78780       -0.74940        4.84570
F          5.46300       -1.85140        3.03240
