18
TSA8_9_CN_H_CF3
C          2.97730       -0.13000        1.44290
C          1.55250        0.44470        1.61040
C          2.79640       -1.32870        0.58530
H          3.60030        0.59490        0.87060
H          1.61680        1.55290        1.57970
C          3.50650       -0.40260        2.89380
C          2.64400       -1.52000        3.46410
C          1.16100       -1.22790        3.23930
O          0.92870        0.11700        2.85650
C          4.97160       -0.67580        3.30090
H          3.30160        0.54300        3.44230
H          2.90510       -2.49070        2.97060
H          0.69020       -1.40920        4.22530
H          0.69890       -1.92400        2.50690
N          2.63480       -2.27430       -0.05730
F          5.80230        0.36110        2.92020
F          5.00090       -0.73880        4.69170
F          5.45710       -1.87100        2.80800
