23
TSA8_9_Me_Me_CBr3
C          1.65240       -0.07710       -0.01640
C          1.42260       -1.40100        0.17410
C          1.87360        0.61530       -1.33350
H          1.64980        0.58040        0.84880
C          1.12830       -1.90700        1.55900
C          3.91410       -4.24990       -2.58800
C          2.96550       -3.84990       -1.72820
C          2.36860       -2.47770       -1.81480
O          1.42370       -2.33550       -0.81600
C          4.53400       -5.62000       -2.50290
H          4.24810       -3.56520       -3.36360
H          2.62550       -4.52550       -0.94690
H          1.87910       -2.35070       -2.80460
H          3.19330       -1.74060       -1.70170
H          1.77180       -0.04190       -2.21360
H          2.87830        1.08630       -1.33820
H          1.10780        1.41100       -1.44430
H          1.89070       -2.66330        1.84000
H          0.12670       -2.38510        1.56910
H          1.13860       -1.09840        2.32090
Br         5.86190       -5.83330       -3.89820
Br         5.41140       -5.86200       -0.78920
Br         3.18570       -6.99650       -2.73030
