14
TSA8_9_H_Br_Cl
C          1.08060       -0.74940       -1.36890
C          1.24240       -1.36400        0.04000
H          2.06650       -0.52750       -1.82920
H          0.54150        0.21460       -1.24560
Br         0.02820       -0.62460        1.37980
C          0.31060       -1.69480       -2.30430
C         -0.76820       -2.39640       -1.49720
C         -0.04920       -3.28520       -0.45250
O          1.19920       -2.77790        0.02830
Cl        -0.37010       -0.80330       -3.68930
H          0.99550       -2.47920       -2.69800
H         -1.40120       -1.62360       -1.00850
H          0.19020       -4.23350       -0.97770
H         -0.73230       -3.53630        0.38620
