17
TSA8_9_CN_OH_CN
C          2.56950        1.04600        0.63570
C          1.78360        1.17710       -0.68100
C          1.68440        0.35430        1.59110
H          3.44700        0.37920        0.42480
O          2.23330        0.59790       -1.81770
C          3.05420        2.39510        1.28410
C          2.68050        3.59820        0.48000
C          1.44580        4.08900        0.60890
O          0.72220        1.78340       -0.71550
C          4.45950        2.48830        1.71960
H          2.54940        2.51870        2.26740
H          3.38310        4.03780       -0.22380
H          1.11450        4.92660        0.01600
H          0.75060        3.61360        1.30110
N          0.99650       -0.13750        2.38150
H          1.73860        0.68160       -2.65200
N          5.54500        2.64110        2.09540
