21
TSA8_9_OMe_CH2F_H
C          0.93990       -0.56060       -1.15590
C          1.54960       -1.77930       -0.41080
O          1.86770        0.50890       -1.07520
H         -0.05190       -0.31370       -0.70630
C          1.39650       -1.70290        1.10990
C          0.72370       -0.97570       -2.61180
C         -0.23620       -2.17280       -2.67810
C         -0.11140       -3.07330       -1.43710
O          1.20550       -3.06560       -0.93010
H          0.33430       -0.15190       -3.24660
H          1.70560       -1.29090       -3.02730
H         -1.30020       -1.85510       -2.74190
H         -0.40660       -4.10760       -1.71040
H         -0.81830       -2.74920       -0.64180
C          1.20550        1.75290       -1.10490
H          0.56390        1.85970       -2.00670
H          1.97290        2.55250       -1.16300
H          0.62650        1.91450       -0.17010
F          0.06520       -1.80390        1.47470
H          1.79890       -0.73910        1.48430
H          1.96290       -2.53180        1.58100
