15
TSA8_9_I_I_OH
C          1.76400       -2.31080        1.13850
C          3.03760       -2.26990        0.32340
I          0.70890       -0.44900        0.94520
H          2.04990       -2.33770        2.21400
I          3.05390       -2.07090       -1.78760
C          0.91890       -3.58960        0.89340
C          0.41570       -3.78810       -0.52270
C         -0.50220       -3.00850       -1.10230
O          4.11520       -2.32310        0.89480
O          1.71220       -4.69640        1.24250
H          0.04040       -3.54740        1.57980
H          0.79670       -4.63100       -1.09320
H         -0.95510       -2.17450       -0.58520
H         -0.82590       -3.22080       -2.11600
H          1.09330       -5.43600        1.48000
