15
TSA8_9_I_I_OH
C          1.71160       -0.06190        0.28030
C          2.03050       -1.35150        0.10650
I          2.56700        1.53240       -0.82300
H          0.96290        0.20520        1.01880
I          3.47450       -1.99780       -1.30960
C          0.18660       -5.47110        0.90220
C          0.77510       -4.47080        0.22920
C          0.35600       -3.03960        0.39030
O          1.41840       -2.29530        0.85850
O          0.57810       -6.75160        0.72770
H         -0.62060       -5.26200        1.59670
H          1.58140       -4.69250       -0.46440
H         -0.48990       -2.93700        1.10440
H          0.01030       -2.66960       -0.60110
H          1.28420       -6.99930        0.11120
