15
TSA8_9_I_I_OH
C          1.44620       -2.13870        1.04600
C          1.98660       -1.81310       -0.35710
I          2.73060       -1.51350        2.64940
H          0.53180       -1.51470        1.15210
I          3.85400       -2.75660       -0.85400
C          1.03250       -3.62110        1.13270
C          0.44910       -4.10640       -0.21250
C         -0.02370       -2.92320       -1.06990
O          1.03430       -2.02240       -1.40310
O          2.13440       -4.42370        1.46930
H          0.27240       -3.68060        1.94570
H          1.24260       -4.60740       -0.81030
H         -0.84540       -2.37440       -0.56130
H         -0.43670       -3.33600       -2.01380
H          1.76910       -5.28760        1.79530
