20
TSA8_9_Me_CH2F_Br
C          2.69890       -0.92790        0.67580
C          1.36510       -0.74060        1.37230
C          2.54980       -0.59160       -0.81730
H          3.39790       -0.18520        1.12160
C          1.24050        0.26490        2.48380
C          3.35540       -2.32250        0.91150
C          2.68490       -3.49930        0.23190
C          1.52050       -4.01880        0.62840
O          0.37850       -1.36230        1.01100
Br         5.20680       -2.25890        0.29910
H          3.42680       -2.52490        2.00240
H          3.19160       -3.98110       -0.59960
H          0.98040       -3.62650        1.48050
H          1.10770       -4.87530        0.10520
H          1.85560       -1.30330       -1.31330
H          3.52940       -0.63290       -1.33610
H          2.14550        0.43650       -0.93630
F         -0.05420        0.30340        2.97210
H          1.51150        1.27180        2.10350
H          1.92940       -0.00880        3.30980
