18
TSA8_9_F_CN_CBr3
C          2.91240        1.17650       -1.26970
C          1.49120        0.54920       -1.41300
F          3.09790        1.49730        0.06510
H          3.70810        0.45540       -1.55720
C          1.54360       -0.86210       -1.81660
C          2.98940        2.44670       -2.15370
C          1.80190        3.34560       -1.77660
C          0.48030        2.56630       -1.88240
O          0.68050        1.24350       -2.34100
C          4.32210        3.23690       -2.15720
H          2.84550        2.10740       -3.20410
H          1.91410        3.73610       -0.74070
H         -0.14140        3.09830       -2.63090
H         -0.08490        2.57560       -0.92350
N          1.58780       -1.96960       -2.14040
Br         4.17760        4.69110       -3.44440
Br         4.78900        4.01660       -0.43870
Br         5.79960        2.12470       -2.74520
