16
TSA8_9_F_OH_CN
C          1.57740       -0.05360        0.03500
C          1.41910       -1.25310        0.78950
F          1.57110        0.02140       -1.31620
H          1.49840        0.89330        0.54720
O          1.39930       -1.16310        2.15110
C          2.06160       -4.39910       -2.29250
C          1.77310       -3.12840       -2.00510
C          0.75740       -2.80040       -0.94300
O          1.40930       -2.54330        0.25670
C          3.20980       -4.71060       -3.10770
H          1.48650       -5.20420       -1.84840
H          2.38330       -2.33980       -2.43960
H          0.08810       -3.65590       -0.76290
H          0.08200       -1.96720       -1.25910
H          2.04940       -1.78510        2.53140
N          4.13740       -4.92500       -3.76590
