20
TSA8_9_CF3_CBr3_I
C          2.53250       -1.53110        0.41730
C          1.24030       -1.85610        1.16670
C          2.24080       -0.54700       -0.74470
H          3.21540       -1.00130        1.11680
C          0.99380       -1.39640        2.59940
C          3.30130       -2.78860       -0.10690
C          2.51440       -3.62500       -1.08980
C          2.91220       -3.79360       -2.35460
O          0.35210       -2.45680        0.57940
I          3.97410       -4.10110        1.44390
H          4.23630       -2.42770       -0.58930
H          1.60360       -4.11670       -0.76590
H          2.32340       -4.40610       -3.02980
H          3.81900       -3.32700       -2.72720
F          3.42040       -0.19900       -1.37980
F          1.38190       -1.10520       -1.67590
F          1.66030        0.61010       -0.26050
Br         1.06730        0.53580        2.72480
Br        -0.76340       -1.94170        3.23350
Br         2.28930       -2.11140        3.84610
