20
TSA8_9_CF3_CBr3_I
C          1.72930       -0.08510        0.06940
C          1.45330       -1.27340        0.67920
C          1.88090        0.20220       -1.40700
H          1.83490        0.80630        0.67190
C          1.22600       -1.36600        2.18330
C          4.04740       -4.53970        0.07180
C          2.77100       -4.31300       -0.25540
C          2.31940       -2.99900       -0.82300
O          1.35660       -2.45780        0.01060
I          4.63170       -6.40170        0.87410
H          4.80590       -3.77530       -0.06440
H          2.03420       -5.09630       -0.10610
H          1.87730       -3.19410       -1.82200
H          3.18570       -2.30850       -0.93420
F          3.17960        0.60030       -1.66090
F          1.55980       -0.85890       -2.22290
F          1.02900        1.24080       -1.73340
Br         1.32490        0.29690        3.19940
Br        -0.53510       -2.11120        2.49770
Br         2.53650       -2.57150        2.94820
