20
TSA8_9_CF3_CBr3_I
C          2.78020       -1.26840        0.16560
C          1.29130       -1.59630        0.47280
C          2.84220       -0.18960       -0.93920
H          3.24760       -0.77650        1.04340
C          0.85290       -1.75390        1.95010
C          3.60550       -2.53150       -0.21110
C          2.73330       -3.76690       -0.42000
C          1.45250       -3.38140       -1.14860
O          0.62020       -2.47460       -0.43260
I          5.13730       -2.97270        1.22510
H          4.15420       -2.34490       -1.16010
H          2.45060       -4.23700        0.53730
H          0.87510       -4.31530       -1.31280
H          1.69030       -2.96800       -2.14990
F          4.15780        0.17840       -1.16430
F          2.29710       -0.63910       -2.12640
F          2.14320        0.93380       -0.53100
Br         1.26640       -0.13630        2.93710
Br        -1.07340       -1.97040        2.03660
Br         1.65560       -3.24130        2.89470
