18
TSA8_9_CN_Br_CH2F
C          3.02900        0.39840        1.12810
C          1.67970        1.17230        1.10150
C          2.62500       -0.95630        0.70360
H          3.73080        0.79060        0.38100
Br         1.59470        2.56760       -0.25030
C          3.59810        0.52470        2.59770
C          2.54550       -0.05300        3.54010
C          1.18570        0.60540        3.28490
O          1.27170        1.67880        2.36510
C          4.98110        0.02330        3.05210
H          3.67510        1.62270        2.77660
H          2.47700       -1.15640        3.37930
H          0.87830        1.00910        4.26730
H          0.42250       -0.13980        2.96580
N          2.27370       -2.01820        0.41990
F          5.10220       -1.35150        3.01570
H          5.09630        0.34230        4.11920
H          5.82300        0.50460        2.51040
