16
TSA8_9_Br_F_NH2
C          2.79560        1.82320       -1.10200
C          1.29170        1.71330       -1.05630
Br         3.58030        0.38770       -0.04150
H          3.05460        1.62030       -2.16420
F          0.70870        0.53130       -1.38750
C          3.40590        3.20650       -0.72350
C          3.41210        3.51490        0.77210
C          2.32610        3.71590        1.52560
O          0.58010        2.67120       -0.80930
N          4.78630        3.25020       -1.21850
H          2.84960        4.00500       -1.26220
H          4.37450        3.60210        1.27040
H          1.32410        3.68580        1.13390
H          2.44340        3.94130        2.58030
H          5.38530        2.55490       -0.71650
H          5.18580        4.20500       -1.06510
