22
TSA8_9_CF3_CBr3_NO2
C          2.21560       -1.87610        0.70190
C          1.17620       -0.92200        1.40330
C          2.18030       -1.61860       -0.83600
H          3.24430       -1.62790        1.04320
C          1.80200        0.09020        2.38580
C          1.90460       -3.33370        1.16620
C          0.44510       -3.69820        0.85160
C         -0.48870       -2.51070        1.14880
O          0.12230       -1.62520        2.06220
N          2.81990       -4.37140        0.71630
H          1.97650       -3.32140        2.27690
H          0.27110       -4.06120       -0.18370
H         -1.44170       -2.89540        1.56590
H         -0.77520       -1.96310        0.22390
F          3.14250       -2.34710       -1.50330
F          0.95360       -1.92490       -1.38920
F          2.43480       -0.28280       -1.08500
Br         3.12570        1.22180        1.52810
Br         0.41720        1.26130        3.07210
Br         2.63380       -0.80890        3.89350
O          3.80640       -4.10860        0.09960
O          2.63840       -5.60780        1.12860
