22
TSA8_9_CBr3_CH2F_NO2
C          1.47400       -1.23740        1.72780
C          2.73670       -2.12160        1.75320
C          1.23330       -0.42040        0.40250
H          1.69500       -0.45320        2.48730
C          3.61400       -2.47180        0.57990
C          0.17120       -1.96240        2.25720
C         -0.44330       -2.93030        1.27080
C         -1.68690       -2.75540        0.80490
O          3.12300       -2.52880        2.83830
N          0.37670       -2.65130        3.52390
H         -0.56320       -1.15330        2.45090
H          0.12920       -3.79000        0.93730
H         -2.29330       -1.90960        1.11910
H         -2.11240       -3.46190        0.10110
Br        -0.24110        0.83310        0.60650
Br         2.77140        0.70300        0.00090
Br         0.82400       -1.47140       -1.19360
F          4.88970       -1.98560        0.80480
H          3.26790       -2.07300       -0.38160
H          3.66610       -3.57670        0.48770
O          0.97160       -3.68540        3.57200
O         -0.24330       -2.22400        4.60300
