22
TSA8_9_CBr3_CH2F_NO2
C          1.42610       -0.38340        0.01670
C          2.00120       -1.34060        0.79990
C          2.01570        0.29240       -1.20900
H          0.42950       -0.05470        0.28170
C          3.39030       -1.88290        0.58330
C         -0.97520       -3.60590        3.66000
C         -0.33100       -3.39120        2.49960
C         -0.04240       -2.00550        2.00040
O          1.32680       -1.86950        1.86180
N         -1.24040       -4.91610        4.14910
H         -1.30710       -2.75700        4.25160
H          0.00350       -4.22890        1.89430
H         -0.41580       -1.23730        2.71100
H         -0.56540       -1.88510        1.02870
Br         0.71150        1.53540       -1.93270
Br         3.59430        1.34810       -0.81700
Br         2.40020       -0.98600       -2.61560
F          4.34990       -0.91270        0.78510
H          3.49380       -2.32790       -0.42460
H          3.58670       -2.69200        1.31860
O         -0.87960       -5.88450        3.54980
O         -1.87950       -5.06380        5.28930
