23
TSA8_9_Et_Br_CCl3
C          2.67500        0.75690       -1.33450
C          1.41680        0.03670       -1.78040
C          2.58310        0.85620        0.21910
H          3.51430        0.07980       -1.59270
Br         1.53650       -1.68150       -2.61220
C          2.81670        2.07620       -2.19020
C          1.97540        3.20070       -1.61930
C          0.92080        3.70240       -2.26950
O          0.31560        0.54130       -1.61860
C          4.26460        2.55450       -2.54600
H          2.42610        1.80790       -3.20090
H          2.23510        3.61830       -0.65210
H          0.62260        3.31900       -3.23990
H          0.34580        4.50910       -1.82620
C          3.77620        1.43800        0.95770
H          2.46220       -0.18290        0.60110
H          1.67780        1.42730        0.52160
H          4.71210        0.91530        0.66840
H          3.62190        1.31060        2.05030
H          3.84020        2.52490        0.78790
Cl         5.18560        1.24320       -3.33610
Cl         4.16710        3.88070       -3.74180
Cl         5.25550        3.17730       -1.20940
