23
TSA8_9_Et_Br_CCl3
C          1.71310       -0.06890       -0.22610
C          1.27270       -0.12480       -1.51010
C          1.95980        1.11400        0.67960
H          1.90630       -1.02620        0.25120
Br         1.06190       -1.87560       -2.25530
C          3.06970        3.33940       -3.38480
C          2.57550        2.61110       -2.36650
C          1.10950        2.26580       -2.28140
O          0.93190        0.89970       -2.34900
C          4.52590        3.71370       -3.55120
H          2.39000        3.68970       -4.15740
H          3.22800        2.24660       -1.58820
H          0.57280        2.70930       -3.14690
H          0.61320        2.68970       -1.38880
C          3.39920        1.10180        1.18700
H          1.27970        1.02320        1.55320
H          1.76970        2.08990        0.22480
H          3.61070        0.15550        1.72980
H          3.55460        1.95050        1.88620
H          4.11360        1.19990        0.34300
Cl         5.10390        3.06030       -5.10240
Cl         4.65720        5.48730       -3.60020
Cl         5.60910        3.11210       -2.25980
