23
TSA8_9_Et_Br_CCl3
C          2.47730        0.93120       -1.49470
C          1.04460        0.42340       -1.89500
C          2.49870        1.25180        0.02530
H          3.15790        0.06290       -1.62740
Br         1.18130       -1.14590       -3.03510
C          2.84890        2.08530       -2.48430
C          1.77820        3.20350       -2.43120
C          0.39500        2.65300       -2.06560
O          0.23330        1.36320       -2.59670
C          4.28850        2.67290       -2.50200
H          2.73500        1.59290       -3.47700
H          1.99910        4.01930       -1.71190
H         -0.38360        3.33280       -2.46770
H          0.23080        2.63020       -0.96560
C          3.87040        1.07470        0.68570
H          1.86280        0.49800        0.54120
H          2.07590        2.25230        0.24390
H          4.22900        0.03310        0.54240
H          3.77790        1.26160        1.77640
H          4.64120        1.74800        0.29450
Cl         5.51190        1.37430       -2.51620
Cl         4.51220        3.61250       -4.00540
Cl         4.63620        3.80900       -1.16450
