23
TSA8_9_Me_CCl3_CBr3
C          2.75340       -1.80570        0.11850
C          1.49540       -2.26640        0.84690
C          2.39290       -0.58980       -0.75570
H          3.47700       -1.42710        0.87100
C          1.32020       -2.06070        2.34380
C          3.47660       -2.89260       -0.75960
C          2.56830       -3.41690       -1.86080
C          2.81410       -3.18790       -3.15450
O          0.56960       -2.73470        0.20000
C          4.11690       -4.08230        0.01510
H          4.33670       -2.36320       -1.22970
H          1.69130       -4.00110       -1.60500
H          2.14050       -3.58160       -3.91080
H          3.67620       -2.61050       -3.47140
H          1.65710       -0.86040       -1.54200
H          3.30400       -0.18360       -1.24480
H          1.95470        0.21810       -0.13260
Cl         2.56760       -2.90530        3.28940
Cl         1.41700       -0.32310        2.72800
Cl        -0.27180       -2.64960        2.90510
Br         5.15510       -5.18080       -1.21110
Br         5.38200       -3.46130        1.35170
Br         2.82550       -5.27080        0.85690
