23
TSA8_9_Me_CCl3_CBr3
C          1.67770       -0.06470        0.02970
C          1.42650       -1.33920        0.43660
C          1.83040        0.39910       -1.39460
H          1.75170        0.73250        0.75560
C          1.19680       -1.68860        1.90050
C          4.20710       -4.16950       -0.74950
C          2.89220       -4.05100       -1.00580
C          2.29190       -2.72850       -1.38430
O          1.35690       -2.39790       -0.42080
C          4.89480       -5.44190       -0.31350
H          4.84110       -3.29220       -0.83860
H          2.22110       -4.89700       -0.92370
H          1.79480       -2.80930       -2.37360
H          3.09540       -1.96210       -1.44610
H          1.64330       -0.38510       -2.14850
H          2.84740        0.81880       -1.53900
H          1.08530        1.19970       -1.58350
Cl         2.40290       -2.90230        2.39820
Cl         1.30210       -0.32500        3.05630
Cl        -0.42390       -2.40930        2.06930
Br         6.27160       -5.87540       -1.60160
Br         5.73600       -5.11230        1.39740
Br         3.73760       -6.99690       -0.11670
