21
TSA8_9_Et_F_OH
C          2.36560        0.64000       -1.30910
C          1.06890        0.02540       -1.78710
C          2.25480        0.91250        0.21530
H          3.13810       -0.14600       -1.46690
F          1.08140       -1.22170       -2.32660
C          2.82040        1.86570       -2.16590
C          2.01680        3.13620       -1.96410
C          0.77190        3.30850       -2.41610
O          0.00020        0.59370       -1.63450
O          4.16550        2.13900       -1.86520
H          2.77420        1.56820       -3.24100
H          2.49340        3.97410       -1.46220
H          0.25410        2.53920       -2.97280
H          0.26570        4.25430       -2.25200
C          3.55510        1.35640        0.88490
H          1.94110       -0.03220        0.71280
H          1.47200        1.67760        0.41100
H          4.35360        0.60370        0.71400
H          3.38740        1.45330        1.97840
H          3.88270        2.34780        0.51520
H          4.54540        2.63600       -2.63720
