21
TSA8_9_Et_F_OH
C          1.74720       -0.09480       -0.24710
C          1.30310       -0.21100       -1.52470
C          1.95760        1.12350        0.62050
H          1.97190       -1.03270        0.25540
F          1.19700       -1.48020       -2.00010
C          2.97250        3.23310       -3.54120
C          2.51430        2.53060       -2.49370
C          1.06120        2.14720       -2.37230
O          0.92260        0.77490       -2.39190
O          4.28040        3.55910       -3.64860
H          2.29570        3.55020       -4.32850
H          3.20900        2.22170       -1.72230
H          0.50060        2.54610       -3.24460
H          0.56440        2.58880       -1.48830
C          3.39580        1.17070        1.12830
H          1.28070        1.03980        1.49630
H          1.74110        2.07880        0.13440
H          3.63560        0.24770        1.69920
H          3.52320        2.04370        1.80330
H          4.10710        1.26700        0.28190
H          4.93700        3.29800       -2.98670
