17
TSA8_9_CH2F_F_Cl
C          1.66820        0.00080        0.13050
C          1.32510       -0.07840        1.44070
C          2.16000       -1.05480       -0.82280
H          1.56370        0.98150       -0.32640
F          0.88140        1.07500        2.00740
C          4.19390       -2.90240        2.98710
C          3.41100       -2.33910        2.06040
C          1.90600       -2.42520        2.13170
O          1.35430       -1.16810        2.26570
Cl         5.94130       -2.76920        2.87220
H          3.76860       -3.44660        3.82470
H          3.87670       -1.80040        1.24290
H          1.61070       -3.01220        3.02800
H          1.46240       -2.96540        1.27480
F          3.39460       -0.67600       -1.31500
H          1.44600       -1.11570       -1.67030
H          2.25400       -2.06540       -0.41800
