17
TSA8_9_CH2F_F_Cl
C          2.64310       -0.54670        1.01880
C          1.22210       -0.53320        1.66450
C          2.55500       -1.01070       -0.44910
H          3.03550        0.49460        0.99180
F          1.03040        0.67240        2.31570
C          3.56150       -1.41750        1.89840
C          2.99280       -2.83630        2.04630
C          1.45480       -2.80910        2.09660
O          0.99970       -1.57800        2.61200
Cl         5.26690       -1.45820        1.36880
H          3.55690       -0.95710        2.91110
H          3.29810       -3.52630        1.22990
H          1.09690       -3.64780        2.72870
H          1.00510       -2.98320        1.09390
F          3.78780       -0.92280       -1.06910
H          1.85310       -0.34830       -0.99910
H          2.18660       -2.04980       -0.54460
