19
TSA8_9_NH2_Cl_CH2F
C          1.95570        2.36020       -0.48300
C          0.62250        2.59800       -1.14810
N          1.82940        1.21390        0.42270
H          2.69290        2.10030       -1.27520
Cl         0.46970        2.45360       -2.89220
C          2.45570        3.62540        0.27480
C          3.81280        3.36060        0.88900
C          4.01750        3.40590        2.20860
O         -0.36050        2.88740       -0.48360
C          2.56270        4.85110       -0.64990
H          1.71930        3.87240        1.07400
H          4.64840        3.12030        0.23720
H          3.21040        3.63750        2.89630
H          5.00610        3.20590        2.60930
H          2.76730        0.93120        0.78630
H          1.21320        1.45730        1.23310
F          3.44930        4.61450       -1.68690
H          2.91300        5.73180       -0.06970
H          1.57060        5.10710       -1.07750
