14
TSA8_9_Cl_F_Cl
C          1.76540        0.13230        0.01560
C          1.49900        1.32660        0.55600
Cl         1.86050       -1.32580        0.99600
H          1.92390        0.04940       -1.05420
F          1.42620        2.42350       -0.24200
C          2.25330        4.18230        2.59410
C          2.95390        3.04580        2.52230
C          2.31190        1.71080        2.78370
O          1.29100        1.45670        1.88880
Cl         3.03150        5.72570        2.28960
H          1.19610        4.16630        2.84300
H          4.01120        3.08030        2.27620
H          1.89830        1.70490        3.81420
H          3.07710        0.90790        2.71390
