26
TSA8_9_Et_Et_Br
C          2.52360       -1.46780       -0.37840
C          1.01900       -1.92180       -0.31440
C          2.58380       -0.04840       -1.01250
H          2.92600       -1.36080        0.65420
C          0.65710       -2.43240        1.08900
C          3.30580       -2.58900       -1.09890
C          2.75360       -2.81550       -2.51030
C          1.22550       -2.63860       -2.53220
O          0.67760       -2.93580       -1.26670
Br         5.24450       -2.46180       -1.08600
H          3.10370       -3.51920       -0.52280
H          3.19700       -2.14080       -3.27370
H          0.79540       -3.30960       -3.30340
H          0.92380       -1.61400       -2.83800
C          3.96460        0.60280       -1.01940
H          1.92610        0.61040       -0.40330
H          2.19610       -0.03630       -2.04850
H          4.39040        0.62600        0.00590
H          3.87330        1.64640       -1.38820
H          4.65110        0.08070       -1.71020
C         -0.82990       -2.75730        1.20270
H          0.89520       -1.64670        1.83860
H          1.25220       -3.34180        1.32340
H         -1.43710       -1.85120        0.99250
H         -1.05490       -3.10720        2.23230
H         -1.11310       -3.56090        0.49050
