18
TSA8_9_CF3_CN_Br
C          1.70640       -0.06190        0.05950
C          1.46700       -1.38590        0.20050
C          1.82500        0.62340       -1.28460
H          1.77310        0.56140        0.94310
C          1.27530       -1.95060        1.52290
C         -0.21030       -4.62550       -2.75050
C          0.16840       -3.36840       -2.52870
C          0.15420       -2.78550       -1.15870
O          1.34970       -2.16450       -0.88540
Br        -0.27170       -5.29580       -4.53590
H         -0.52350       -5.26270       -1.92920
H          0.44620       -2.72830       -3.36190
H         -0.10290       -3.51940       -0.36480
H         -0.62810       -2.00690       -1.19040
F          3.15620        0.86830       -1.55120
F          1.28740       -0.12150       -2.32060
F          1.14600        1.82740       -1.23700
N          1.11670       -2.43290        2.55890
