18
TSA8_9_CF3_CN_Br
C          1.03440       -1.38060       -1.36580
C          1.19520       -2.00950        0.07490
C          2.12690       -0.32930       -1.66230
H          0.06450       -0.85110       -1.47650
C          1.00750       -1.05560        1.17620
C          1.01600       -2.60860       -2.30030
C         -0.27500       -3.39940       -2.00550
C         -0.68000       -3.27970       -0.52040
O          0.46580       -3.22130        0.29820
Br         1.12980       -2.28340       -4.21450
H          1.89460       -3.24670       -2.04920
H         -1.13420       -2.99680       -2.59130
H         -1.33050       -4.13270       -0.23750
H         -1.29580       -2.36520       -0.34550
F          3.39000       -0.87570       -1.55120
F          1.96370        0.18560       -2.93490
F          2.00800        0.72600       -0.77590
N          0.88260       -0.35100        2.08720
