23
TSA8_9_CH2F_CF3_CBr3
C          1.80680       -0.03310       -0.16260
C          1.41270        0.12560       -1.44810
C          1.94440        1.09400        0.82430
H          2.02340       -1.02480        0.22080
C          1.22800       -1.06760       -2.36130
C          4.09960        1.61390       -3.66020
C          2.77540        1.83470       -3.59840
C          2.10400        2.27530       -2.32730
O          1.13650        1.36110       -1.94490
C          4.84130        1.17050       -4.90160
H          4.69610        1.75560       -2.76290
H          2.14060        1.70160       -4.46590
H          1.60970        3.24780       -2.52980
H          2.83840        2.43220       -1.50840
F          3.25080        1.15740        1.26980
H          1.27670        0.89490        1.68830
H          1.65590        2.07800        0.40520
F         -0.07970       -1.09350       -2.80790
F          2.06980       -0.95960       -3.45090
F          1.49730       -2.26570       -1.72120
Br         6.20340        2.48430       -5.30510
Br         5.70820       -0.51840       -4.52930
Br         3.74770        0.93880       -6.49790
