23
TSA8_9_CH2F_CF3_CBr3
C          2.85710        0.30400       -1.54760
C          1.32450        0.21890       -1.79280
C          3.05280        0.69960       -0.07040
H          3.30000       -0.71060       -1.64020
C          0.79340       -0.79290       -2.82190
C          3.57350        1.32350       -2.49770
C          2.55150        2.12920       -3.31060
C          1.38150        2.54420       -2.41020
O          0.63800        1.46660       -1.84440
C          4.68480        0.70370       -3.39050
H          4.09240        2.07790       -1.86450
H          2.16430        1.56960       -4.17860
H          0.68990        3.15620       -3.02550
H          1.76190        3.18950       -1.59040
F          4.39580        0.71160        0.26070
H          2.54300       -0.03690        0.58770
H          2.62450        1.70310        0.13570
F         -0.57020       -0.92930       -2.64340
F          1.01840       -0.39840       -4.12210
F          1.38360       -2.02620       -2.61520
Br         5.55200        2.08450       -4.44930
Br         6.07420       -0.11610       -2.30850
Br         4.02190       -0.65130       -4.61370
