19
TSA8_9_Me_NH2_H
C          1.59900       -1.31790        1.07170
C          0.92670       -0.01810        1.47480
C          1.32210       -1.61560       -0.40840
H          2.69890       -1.18440        1.17580
N          1.65970        1.01500        1.95440
C          1.24250       -2.53190        1.97100
C         -0.20160       -2.97510        1.96930
C         -1.17050       -2.30160        2.59600
O         -0.27950        0.11970        1.33900
H          1.84390       -3.38820        1.59390
H          1.56580       -2.34960        3.01890
H         -0.45670       -3.90900        1.47690
H         -0.96190       -1.39020        3.14500
H         -2.18810       -2.67780        2.58260
H          0.23720       -1.77700       -0.58450
H          1.87400       -2.52560       -0.72720
H          1.66370       -0.76620       -1.03840
H          1.20290        1.90170        2.21460
H          2.68030        0.93490        2.06900
