19
TSA8_9_Me_NH2_H
C          1.92900       -0.05140        0.05050
C          1.28210       -0.31520        1.20060
C          2.03120       -1.02860       -1.08710
H          2.40520        0.91590       -0.08380
N          1.23430        0.68320        2.21690
C         -0.24470       -4.27960        3.14210
C         -0.55080       -3.30090        2.28560
C         -0.05870       -1.89570        2.47500
O          0.68280       -1.52560        1.37340
H         -0.61900       -5.28410        2.97340
H          0.37600       -4.09280        4.01270
H         -1.17680       -3.52480        1.42640
H          0.56640       -1.81840        3.39240
H         -0.93850       -1.22400        2.57590
H          1.51850       -1.98970       -0.87480
H          3.10130       -1.23860       -1.29240
H          1.57220       -0.57970       -1.99220
H          0.74690        0.52120        3.10870
H          1.69000        1.59810        2.07930
