20
TSA8_9_CH2F_I_CF3
C          1.61530       -2.19680       -1.09630
C          1.26870       -1.65150        0.27220
C          1.75820       -1.03060       -2.09320
H          2.61250       -2.68120       -1.01030
I          2.59490       -1.92830        1.89210
C          0.59420       -3.30310       -1.52090
C         -0.81590       -2.76320       -1.66270
C         -1.81690       -3.18470       -0.88300
O          0.23010       -1.03610        0.45980
C          0.98840       -4.04710       -2.81500
H          0.61790       -4.06830       -0.71060
H         -1.02700       -2.01560       -2.42140
H         -1.65400       -3.93190       -0.11250
H         -2.81410       -2.77770       -1.01410
F          2.69980       -0.12720       -1.63060
H          0.79420       -0.49720       -2.22600
H          2.10820       -1.39180       -3.07880
F          0.91830       -3.22220       -3.92300
F          2.27250       -4.55010       -2.70430
F          0.12260       -5.10860       -3.01550
