20
TSA8_9_CH2F_I_CF3
C          1.51070       -2.33110       -1.36510
C          1.07870       -1.83550        0.02930
C          1.62470       -1.11980       -2.31090
H          2.52820       -2.77320       -1.28980
I          1.50460       -3.18480        1.65680
C          0.50430       -3.42570       -1.82200
C         -0.92900       -2.88590       -1.72540
C         -1.17300       -2.35540       -0.30730
O         -0.25040       -1.33400        0.03820
C          0.78250       -4.02930       -3.21200
H          0.58960       -4.26650       -1.09710
H         -1.09850       -2.07330       -2.46330
H         -1.15030       -3.18380        0.43270
H         -2.19840       -1.93290       -0.26750
F          2.53560       -0.21170       -1.79930
H          0.65140       -0.60290       -2.43670
H          1.99790       -1.43310       -3.30540
F          0.59930       -3.09970       -4.21950
F          2.07760       -4.51150       -3.26650
F         -0.08730       -5.08240       -3.43530
