18
TSA8_9_NO2_NO2_F
C          1.94660        0.12360       -0.10920
C          1.60880        0.73630       -1.29520
N          1.79810        0.55600        1.24770
H          2.39740       -0.86060       -0.19570
N          1.86220        0.01670       -2.51030
C          2.01680        4.78430        0.59370
C          2.04570        3.66980       -0.14090
C          0.77990        3.07690       -0.69820
O          1.05170        1.97690       -1.48230
F          3.17110        5.30670        1.08350
H          1.07680        5.28500        0.80580
H          2.99980        3.18970       -0.34020
H          0.31320        3.84200       -1.35370
H          0.01490        2.84110        0.06490
O          2.19750       -0.15950        2.11530
O          1.17070        1.65060        1.59220
O          1.58810        0.51610       -3.55950
O          2.39450       -1.18860       -2.50250
