19
TSA8_9_NH2_I_CH2F
C          1.54470       -0.01780        2.75590
C          1.21140        0.83940        1.51820
N          1.60970       -1.43380        2.38090
H          2.54640        0.27220        3.14400
I          1.69570        2.93140        1.69390
C          0.48420        0.23930        3.85200
C         -0.92180        0.04980        3.26870
C         -1.06760        0.93280        2.02340
O         -0.10350        0.60360        1.03440
C          0.69690       -0.64520        5.08630
H          0.57110        1.30060        4.17550
H         -1.10540       -1.01130        2.99730
H         -1.01580        2.00950        2.29440
H         -2.07970        0.76930        1.59870
H          2.40300       -1.57400        1.71340
H          0.73190       -1.74740        1.91020
F         -0.24330       -0.34190        6.05590
H          1.70920       -0.47130        5.50750
H          0.60120       -1.72030        4.82280
