23
TSA8_9_F_Et_CF3
C          2.19910        2.11080       -0.39740
C          0.98720        2.17340       -1.29290
F          1.92970        1.20270        0.61400
H          3.07550        1.73400       -0.97030
C          1.09960        1.78820       -2.74840
C          2.54780        3.48600        0.22400
C          3.68150        3.30790        1.21060
C          3.53750        3.58650        2.51030
O         -0.08490        2.52680       -0.82160
C          2.95840        4.53410       -0.83300
H          1.64960        3.86750        0.76060
H          4.64090        2.94110        0.85570
H          2.59550        3.95370        2.90650
H          4.37040        3.44600        3.19100
C         -0.23010        1.89050       -3.49690
H          1.46470        0.74090       -2.81540
H          1.84020        2.45420       -3.24150
H         -0.98130        1.21090       -3.04010
H         -0.08550        1.59650       -4.55770
H         -0.61180        2.93340       -3.46580
F          3.27550        5.72720       -0.20670
F          4.06240        4.09910       -1.54730
F          1.92170        4.77740       -1.71540
