22
TSA8_9_Me_NO2_CF3
C          1.72200        0.14970       -0.01720
C          1.42920        1.48470        0.03180
C          1.94840       -0.85390        1.08260
H          1.79710       -0.31240       -0.99620
N          1.22880        2.18200       -1.20230
C          3.91110        2.85490        3.23180
C          3.17140        1.94310        2.57770
C          1.67120        2.06470        2.47930
O          1.29870        2.24760        1.16410
C          5.41180        2.78280        3.32340
H          3.42350        3.69700        3.71490
H          3.65520        1.10650        2.08690
H          1.33010        2.95990        3.04220
H          1.13010        1.22140        2.94350
H          1.87300       -0.49240        2.10860
H          2.96050       -1.29330        0.96180
H          1.20090       -1.66670        0.97260
O          0.97430        3.34790       -1.18750
O          1.33660        1.56890       -2.36340
F          5.92070        1.67450        2.66710
F          5.95020        3.92190        2.75500
F          5.78250        2.72450        4.65270
