22
TSA8_9_Me_NO2_CF3
C          2.81500        1.28050        0.80690
C          1.32540        1.68880        0.55970
C          2.87070       -0.23130        1.07340
H          3.41670        1.46800       -0.11050
N          1.13930        2.21920       -0.77690
C          3.39060        2.15400        1.95430
C          2.49480        2.07210        3.20560
C          1.00880        2.02190        2.81410
O          0.82260        2.59680        1.53820
C          4.87440        1.92210        2.29500
H          3.31640        3.20240        1.58520
H          2.71310        1.20580        3.86730
H          0.40930        2.56280        3.57470
H          0.62870        0.97290        2.82110
H          2.30990       -0.50550        1.99040
H          3.91740       -0.57990        1.17160
H          2.42530       -0.77750        0.21450
O          0.70230        3.31850       -0.94050
O          1.41090        1.46810       -1.82170
F          5.08030        0.66590        2.83520
F          5.64670        2.05880        1.15540
F          5.28650        2.86540        3.21990
