23
TSA8_9_CCl3_CH2F_CF3
C          1.58960       -0.76400        1.93360
C          2.99730       -0.42910        2.46260
C          1.54280       -1.55920        0.57150
H          1.16660        0.23080        1.67490
C          4.30890       -0.94850        1.92620
C          0.70690       -1.30160        3.13820
C         -0.78360       -1.30060        2.85040
C         -1.45190       -0.18400        2.53930
O          3.07290        0.34310        3.40800
C          1.11950       -2.67310        3.72720
H          0.83740       -0.57560        3.97270
H         -1.34580       -2.22920        2.91260
H         -0.95090        0.77560        2.47600
H         -2.51940       -0.22930        2.34840
Cl         2.24350       -3.20340        0.60910
Cl        -0.11690       -1.72720       -0.06180
Cl         2.40770       -0.63270       -0.69180
F          5.09320        0.11710        1.52480
H          4.21810       -1.63530        1.07420
H          4.83750       -1.49530        2.73520
F          0.80490       -3.71290        2.87600
F          2.47140       -2.70550        4.01480
F          0.42890       -2.88230        4.90910
