21
TSA8_9_CHF2_Cl_OMe
C          1.87550       -0.01410        0.05280
C          1.59660       -0.53330        1.26070
C          1.71200       -0.73810       -1.26060
H          2.26890        0.99750        0.00600
Cl         1.88210        0.43440        2.70190
C          4.07530       -2.76560        2.94870
C          3.32330       -2.65430        1.83960
C          1.83080       -2.88830        1.85010
O          1.10900       -1.79220        1.39990
O          5.42010       -2.55270        2.96130
H          3.59950       -3.03790        3.88520
H          3.77440       -2.38800        0.88910
H          1.45770       -3.18020        2.85520
H          1.63330       -3.73280        1.15750
F          2.94480       -0.82490       -1.87940
F          1.19760       -2.01470       -1.11800
H          1.02590       -0.15610       -1.90840
C          6.18830       -2.17220        1.87820
H          7.24640       -2.07890        2.19690
H          5.84580       -1.18760        1.49340
H          6.12730       -2.93640        1.07380
