21
TSA8_9_CHF2_Cl_OMe
C          2.60500       -0.54750        0.91660
C          1.24480       -0.81800        1.58980
C          2.43620       -0.56830       -0.62170
H          2.93640        0.48400        1.16930
Cl         1.15770       -0.27990        3.29910
C          3.64590       -1.54950        1.47750
C          3.11390       -2.98550        1.34770
C          1.73020       -3.07020        2.00390
O          0.81150       -2.15980        1.41580
O          4.88850       -1.38170        0.81740
H          3.74750       -1.31170        2.56330
H          3.06000       -3.30240        0.28770
H          1.80390       -2.91090        3.10140
H          1.34440       -4.10150        1.86620
F          3.63300       -0.27540       -1.24980
F          1.95780       -1.77590       -1.09370
H          1.70370        0.21640       -0.90950
C          5.91700       -2.06230        1.50570
H          5.94540       -1.80540        2.58810
H          6.89020       -1.73960        1.08270
H          5.83490       -3.15990        1.35160
