18
TSA8_9_OH_I_CH2F
C          1.73760        0.12870        0.14870
C          1.38950        0.45570        1.40870
O          2.08980       -1.12190       -0.20900
H          1.72440        0.90030       -0.61560
I          0.82710        2.45580        1.78840
C          4.13490       -2.03320        3.57570
C          3.38710       -1.62620        2.53930
C          1.87990       -1.67680        2.57780
O          1.35450       -0.40150        2.47040
C          5.63070       -1.96080        3.52580
H          3.66330       -2.41710        4.47610
H          3.87790       -1.24140        1.65060
H          1.54060       -2.10130        3.54670
H          1.47940       -2.33940        1.78400
H          2.32560       -1.32510       -1.12440
F          6.10870       -2.74050        2.48830
H          6.05470       -2.33220        4.48210
H          5.95280       -0.90850        3.37650
