18
TSA8_9_OH_I_CH2F
C          3.06270       -0.32010        1.37410
C          1.56260        0.04110        1.60550
O          3.18380       -1.24180        0.32080
H          3.64130        0.59580        1.11180
I          1.41630        2.01650        2.42300
C          3.60430       -0.93810        2.67340
C          2.79710       -2.20550        3.02960
C          1.36610       -2.13820        2.46560
O          0.86760       -0.82010        2.51160
C          5.11280       -1.21780        2.63420
H          3.42750       -0.19280        3.48030
H          3.25020       -3.14320        2.64130
H          0.71170       -2.81530        3.05250
H          1.32710       -2.51220        1.41700
H          2.97400       -0.74740       -0.51430
F          5.42510       -2.14170        1.65200
H          5.44780       -1.61190        3.61720
H          5.66550       -0.27600        2.43030
