19
TSA8_9_CF3_Br_NH2
C          1.81390       -0.06240       -0.01840
C          1.07140       -0.44840        1.03400
C          2.25260       -0.95470       -1.15410
H          2.12590        0.97660       -0.07190
Br         0.62390        0.88200        2.35350
C         -0.10070       -4.51710        2.98290
C         -0.41190       -3.65180        2.00660
C         -0.18980       -2.17520        2.16150
O          0.65100       -1.73340        1.16210
N         -0.31830       -5.90780        2.82190
H          0.32290       -4.15920        3.91730
H         -0.83900       -4.01650        1.07630
H          0.25370       -1.94560        3.15500
H         -1.16970       -1.65790        2.07570
F          3.63320       -0.95850       -1.21410
F          1.81200       -2.25880       -1.01710
F          1.75540       -0.44390       -2.33820
H         -0.71700       -6.28870        1.95130
H         -0.07760       -6.55390        3.58700
