19
TSA8_9_CF3_Br_NH2
C          1.60190       -2.08980        1.03170
C          1.00760       -0.70920        1.38020
C          1.58870       -2.28180       -0.50620
H          2.67400       -2.10360        1.32800
Br         1.53330       -0.01910        3.13010
C          0.84470       -3.16000        1.86590
C         -0.67290       -3.02030        1.68410
C         -1.07990       -1.57310        1.98700
O         -0.39460       -0.64760        1.15580
N          1.29440       -4.52300        1.57890
H          1.06350       -2.95240        2.93770
H         -0.98260       -3.29340        0.65520
H         -0.92490       -1.33750        3.06200
H         -2.16990       -1.47390        1.80400
F          2.30520       -1.25380       -1.09460
F          2.20220       -3.47030       -0.85620
F          0.30820       -2.26430       -1.02610
H          0.94540       -4.82970        0.64270
H          0.87830       -5.17090        2.28700
