20
TSA8_9_NO2_CF3_CN
C          2.09520       -2.04790       -0.01780
C          1.06450       -1.34320        0.86180
N          2.12750       -1.37580       -1.31650
H          3.09060       -1.95360        0.47120
C          1.39970       -0.91700        2.27390
C          1.75040       -3.57290       -0.14290
C          1.21410       -4.09950        1.16200
C         -0.09600       -4.32780        1.29790
O         -0.10060       -1.30030        0.49400
C          2.91170       -4.40530       -0.50770
H          0.96150       -3.69070       -0.91370
H          1.87410       -4.21840        2.01730
H         -0.50250       -4.64280        2.24790
H         -0.77530       -4.15280        0.46640
O          2.33630       -0.19990       -1.36870
O          1.80560       -2.01180       -2.42420
F          1.23180       -1.98750        3.13410
F          2.70590       -0.47350        2.36520
F          0.55270        0.09820        2.67610
N          3.81700       -5.08690       -0.74750
