20
TSA8_9_Cl_CCl3_CHF2
C          2.06540       -0.15360       -2.35070
C          0.90670       -1.11050       -2.53970
Cl         1.70020        0.84640       -0.90980
H          2.99130       -0.72740       -2.12840
C          1.08150       -2.60520       -2.35230
C          2.30720        0.76270       -3.58340
C          3.45280        1.70930       -3.29280
C          3.28950        3.03610       -3.27000
O         -0.19620       -0.65540       -2.81030
C          2.63850       -0.01300       -4.87330
H          1.37860        1.34790       -3.77260
H          4.43960        1.29990       -3.09390
H          2.32050        3.48710       -3.46070
H          4.13430        3.68220       -3.05610
Cl         2.29190       -3.25880       -3.48330
Cl         1.62130       -2.93920       -0.68700
Cl        -0.44990       -3.48720       -2.61910
F          3.77460       -0.78650       -4.70780
F          1.58280       -0.81950       -5.25640
H          2.82070        0.70860       -5.69870
