20
TSA8_9_Cl_CCl3_CHF2
C          2.80950       -0.54620       -2.81550
C          1.47610       -0.32060       -2.02300
Cl         4.16350        0.11250       -1.84580
H          3.01660       -1.63010       -2.94280
C          0.62610       -1.59410       -1.85400
C          2.69390        0.13490       -4.19720
C          2.36620        1.63210       -4.03130
C          1.47510        1.86390       -2.80000
O          0.67210        0.72830       -2.56740
C          3.89630       -0.08730       -5.12850
H          1.81670       -0.33030       -4.69760
H          3.26200        2.28240       -3.92670
H          0.84390        2.76180       -2.96080
H          2.09210        2.08580       -1.89750
Cl         0.12330       -2.26540       -3.43000
Cl         1.53330       -2.83830       -0.95200
Cl        -0.83950       -1.21770       -0.91190
F          5.04800        0.48090       -4.61430
F          4.10490       -1.44200       -5.32060
H          3.68690        0.37680       -6.11580
