18
TSA8_9_CCl3_H_OH
C          1.72830        1.00680        1.72780
C          1.51660        1.46820        0.30080
C          1.62300       -0.55160        1.83700
H          2.78160        1.26130        1.98390
H          2.33770        1.92970       -0.23820
C          0.85170        1.85900        2.70020
C         -0.63960        1.66550        2.54000
C         -1.44410        2.66160        2.15670
O          0.43850        1.33640       -0.25800
O          1.20590        1.59080        4.03120
H          1.11670        2.92240        2.47900
H         -1.08240        0.70210        2.75940
H         -1.05240        3.64950        1.93520
H         -2.51130        2.48960        2.06240
Cl         1.96050       -1.13320        3.49010
Cl         0.04680       -1.22220        1.32530
Cl         2.86030       -1.29910        0.78560
H          0.94120        2.38300        4.56890
