18
TSA8_9_CCl3_H_OH
C          1.55320        1.00270        2.04330
C          1.29250        1.69220        0.68730
C          1.48270       -0.55660        1.90860
H          2.60170        1.22070        2.34600
H          1.61960        2.75750        0.68570
C          0.62720        1.69370        3.08430
C         -0.82980        1.72020        2.61480
C         -0.88310        2.31560        1.20050
O         -0.06790        1.58090        0.30080
O          0.73500        1.10480        4.35220
H          0.96820        2.75560        3.14800
H         -1.27660        0.70910        2.62930
H         -0.58850        3.38990        1.21130
H         -1.93280        2.28040        0.84270
Cl         1.89450       -1.36660        3.44520
Cl        -0.08030       -1.21440        1.34660
Cl         2.71110       -1.09130        0.72640
H          0.41530        1.77640        5.00980
