25
TSA8_9_CN_OMe_Et
C          1.62720        0.06380       -0.00340
C          1.42180        1.31400        0.45520
C          1.75340       -1.05590        0.88210
H          1.67380       -0.10500       -1.06510
O          1.25810        2.30150       -0.46510
C          4.60090        1.99270        3.03760
C          3.41300        1.41910        2.79140
C          2.17440        2.24920        2.58090
O          1.27530        1.56310        1.78890
C          5.90460        1.24770        3.23730
H          4.65210        3.07600        3.09340
H          3.31710        0.34010        2.74820
H          2.39860        3.25120        2.16370
H          1.70730        2.41190        3.57320
N          1.85030       -1.93140        1.62980
C          2.09990        3.37480       -0.65600
H          2.47050        3.32960       -1.70170
H          2.97880        3.33620        0.01530
H          1.54680        4.32810       -0.51970
C          5.84230       -0.27460        3.08130
H          6.29490        1.48770        4.24960
H          6.62240        1.63210        2.48250
H          5.17750       -0.72710        3.84690
H          6.86250       -0.69530        3.21180
H          5.48470       -0.54680        2.06490
