21
TSA8_9_NO2_CH2F_NO2
C          2.63930       -1.14250       -1.28720
C          1.60850       -1.48510       -0.23160
N          2.76110        0.30240       -1.41410
H          3.61710       -1.55330       -0.94160
C          2.02520       -2.22960        1.00520
C          2.33370       -1.84630       -2.64230
C          1.05640       -1.36700       -3.30420
C          0.01670       -2.17850       -3.51850
O          0.44010       -1.15650       -0.37920
N          3.44280       -1.67680       -3.56360
H          2.23960       -2.93420       -2.41660
H          0.97780       -0.33590       -3.63180
H          0.04230       -3.22050       -3.21670
H         -0.87580       -1.79500       -4.00280
O          3.80000        0.83570       -1.16270
O          1.72250        1.04320       -1.73750
F          0.94240       -2.44860        1.83880
H          2.78820       -1.63780        1.55320
H          2.46330       -3.20880        0.71890
O          3.74840       -0.59130       -3.95830
O          4.11620       -2.72810       -3.97860
