21
TSA8_9_NO2_CH2F_NO2
C          2.14610       -0.09990       -0.23890
C          1.65780       -1.38160       -0.28440
N          1.93380        1.00600       -1.12020
H          2.79240        0.12980        0.60620
C          2.05130       -2.31030        0.83800
C          2.49020       -2.65760       -3.54820
C          1.65490       -1.61110       -3.42100
C          0.46300       -1.68960       -2.50610
O          0.85380       -1.98360       -1.21620
N          3.62600       -2.62870       -4.40490
H          2.29430       -3.56270       -2.97810
H          1.82610       -0.69860       -3.98330
H         -0.18160       -2.52120       -2.86080
H         -0.18900       -0.80130       -2.54090
O          2.48840        2.03550       -0.88090
O          1.08810        0.97680       -2.11700
F          0.91460       -2.76440        1.48060
H          2.71450       -1.83660        1.59320
H          2.59490       -3.17930        0.41050
O          3.88620       -1.65940       -5.05280
O          4.40030       -3.68830       -4.48740
