20
TSA8_9_CHF2_CN_NO2
C          1.17640       -2.05920       -1.05330
C          1.30200       -2.25690        0.50680
C          2.24130       -1.14230       -1.65510
H          0.23850       -1.53430       -1.33240
C          1.58960       -1.10720        1.37030
C          1.00580       -3.54950       -1.50740
C         -0.43380       -3.94400       -1.08780
C         -0.79600       -3.30410        0.27190
O          0.34680       -3.16430        1.08930
N          1.24100       -3.85200       -2.90330
H          1.71260       -4.19600       -0.92610
H         -1.17650       -3.55260       -1.82550
H         -1.59610       -3.89150        0.76990
H         -1.25280       -2.28340        0.13870
F          3.52460       -1.43010       -1.24660
F          2.17090       -1.13140       -3.03640
H          1.99060       -0.10400       -1.32130
N          1.81590       -0.22980        2.07480
O          0.72680       -3.19990       -3.74780
O          1.56540       -5.10190       -3.19570
