27
TSA8_9_Et_OMe_CCl3
C          2.97850        1.20220       -1.12220
C          2.05820        0.35740       -1.98280
C          2.57080        0.91600        0.35580
H          3.99780        0.79570       -1.28820
O          2.58940       -0.63710       -2.73930
C          2.93740        2.68400       -1.66570
C          1.74780        3.44490       -1.11390
C          0.73960        3.85260       -1.89100
O          0.85320        0.57620       -1.99730
C          4.25730        3.52170       -1.57740
H          2.82230        2.58340       -2.77140
H          1.70950        3.67200       -0.05370
H          0.73310        3.65030       -2.95740
H         -0.09290        4.39610       -1.45620
C          3.41470        1.54690        1.45000
H          2.64820       -0.18490        0.50390
H          1.50950        1.19930        0.53060
H          4.48990        1.31150        1.30370
H          3.23300        2.63290        1.49820
H          3.09380        1.14200        2.43340
C          1.84840       -1.44840       -3.57200
H          2.52470       -2.17400       -4.06860
H          1.34470       -0.83740       -4.35130
H          1.08990       -2.00900       -2.98480
Cl         5.60980        2.65110       -2.35530
Cl         4.05130        5.04030       -2.49920
Cl         4.79280        4.00600        0.04580
