27
TSA8_9_Et_OMe_CCl3
C          2.03690       -0.07100       -0.17180
C          1.80050        0.02140       -1.50750
C          1.87690        0.93880        0.94080
H          2.38880       -1.03990        0.17800
O          2.04200       -1.10760       -2.22270
C          3.00860        4.04480       -2.51690
C          2.56080        3.07300       -1.70010
C          1.20350        2.44700       -1.89270
O          1.33710        1.11010       -2.20050
C          4.36460        4.70550       -2.41100
H          2.36650        4.38850       -3.32410
H          3.17740        2.70590       -0.89360
H          0.69030        2.92900       -2.75240
H          0.52150        2.60040       -1.03680
C          3.19880        1.12030        1.68160
H          1.12560        0.54370        1.65740
H          1.53250        1.92590        0.62450
H          3.54810        0.14950        2.09450
H          3.97760        1.52280        1.00080
H          3.05950        1.83060        2.52400
C          1.91780       -1.18620       -3.59340
H          2.17410       -2.21300       -3.92480
H          2.61520       -0.47010       -4.07990
H          0.87420       -0.95900       -3.89910
Cl         5.23860        4.44570       -3.93940
Cl         4.13180        6.45440       -2.18220
Cl         5.39240        4.10100       -1.07670
