19
TSA8_9_OMe_I_OH
C          0.57620       -0.97460       -0.96600
C          1.48070       -1.01370        0.24370
O          1.32090       -0.62510       -2.12190
H         -0.25760       -0.25260       -0.79270
I          1.08420        0.22430        1.90710
C         -0.07430       -2.35180       -1.20320
C         -0.91960       -2.75720       -0.01740
C         -0.66470       -3.86320        0.68740
O          2.45050       -1.75550        0.26900
O         -0.89070       -2.28280       -2.34270
H          0.74590       -3.08860       -1.38240
H         -1.75820       -2.12950        0.27040
H          0.16540       -4.51440        0.43130
H         -1.29220       -4.12260        1.53370
C          1.57550        0.76400       -2.14930
H          2.05910        1.00960       -3.11670
H          2.28360        1.05610       -1.34370
H          0.63730        1.36030       -2.10340
H         -1.04510       -3.21750       -2.64120
