19
TSA8_9_OMe_I_OH
C          0.45980       -1.04660       -1.11970
C          1.19900       -1.21630        0.23330
O          1.36740       -0.75290       -2.16600
H         -0.29990       -0.23820       -0.99000
I          0.34890       -0.11100        1.87450
C         -0.30210       -2.33500       -1.48310
C         -0.91810       -2.89230       -0.20630
C          0.24780       -3.32550        0.71290
O          1.44980       -2.56650        0.57070
O         -1.28260       -2.05400       -2.44560
H          0.41690       -3.09000       -1.88400
H         -1.53170       -2.09350        0.26590
H          0.50480       -4.35980        0.40290
H         -0.08040       -3.37210        1.77300
C          1.70590        0.61760       -2.15040
H          2.41840        0.81030       -2.97860
H          2.22040        0.89710       -1.20520
H          0.81490        1.25770       -2.33480
H         -1.59200       -2.92940       -2.79760
