24
TSA8_9_OMe_CH2F_CHF2
C          2.53750        1.22800        0.21640
C          1.31720        1.26000       -0.67980
O          2.25980        0.43110        1.35800
H          3.38990        0.82830       -0.38690
C          1.41570        0.77480       -2.09870
C          2.95970        2.65390        0.66040
C          1.91550        3.28680        1.55800
C          1.28170        4.41500        1.22810
O          0.25010        1.67420       -0.25170
C          4.31290        2.64040        1.39540
H          3.09900        3.27000       -0.25750
H          1.67460        2.81080        2.50480
H          1.49010        4.92400        0.29220
H          0.54090        4.83580        1.90020
C          2.74990       -0.87960        1.18850
H          3.86110       -0.88810        1.22070
H          2.36430       -1.34350        0.25320
H          2.38490       -1.50120        2.03160
F          0.19740        0.89000       -2.74490
H          1.72840       -0.29020       -2.10620
H          2.17100        1.37810       -2.64480
F          4.24990        1.88400        2.55350
F          5.30220        2.12910        0.57370
H          4.59690        3.67980        1.66770
