24
TSA8_9_OMe_CH2F_CHF2
C          1.49860        0.04910       -0.12730
C          1.36440        1.08160       -0.99290
O          1.49660        0.22300        1.21490
H          1.59330       -0.95950       -0.52420
C          1.33940        0.80360       -2.47030
C          3.67110        4.06620        1.05800
C          2.94600        2.94630        0.91940
C          1.47290        2.98950        0.60010
O          1.23180        2.39110       -0.62330
C          5.13910        4.01290        1.35740
H          3.20120        5.04010        0.94860
H          3.43070        1.98040        1.02910
H          1.13210        4.04460        0.53150
H          0.87030        2.51770        1.40260
C          1.56970       -0.81500        2.12070
H          2.46740       -0.68040        2.75850
H          1.62960       -1.80650        1.62130
H          0.66600       -0.79790        2.76470
F          0.14110        1.24300       -3.00070
H          1.45450       -0.27700       -2.70190
H          2.17360        1.35210       -2.95610
F          5.35540        3.36420        2.55950
F          5.80230        3.34280        0.34540
H          5.54130        5.04550        1.42740
