24
TSA8_9_OMe_CH2F_CHF2
C          2.59070        1.25680        0.28980
C          1.27620        1.34710       -0.56400
O          2.28000        0.85330        1.61380
H          3.31750        0.54850       -0.17780
C          1.55330        1.02330       -2.03260
C          3.22380        2.66120        0.32370
C          2.23870        3.66590        0.96020
C          0.77810        3.23260        0.74710
O          0.62050        2.61840       -0.51250
C          4.59640        2.70550        1.01360
H          3.37750        2.97220       -0.73280
H          2.37920        3.79230        2.05600
H          0.11820        4.12070        0.82540
H          0.44130        2.53350        1.54630
C          2.18780       -0.55340        1.69420
H          3.20170       -0.99970        1.77620
H          1.62620       -0.99600        0.84020
H          1.61800       -0.81410        2.60950
F          0.36570        1.02680       -2.74070
H          2.00960        0.01500       -2.11890
H          2.24150        1.77270       -2.47730
F          4.49870        2.32800        2.34190
F          5.48170        1.86140        0.36770
H          5.00190        3.73920        0.96610
