20
TSA8_9_Cl_Me_CCl3
C          2.78700        2.09120       -1.26600
C          1.44580        1.56190       -0.65700
Cl         4.15030        1.53850       -0.24230
H          2.95710        1.61650       -2.25560
C          0.47380        1.14320       -1.76050
C          2.69200        3.63210       -1.38820
C          2.44170        4.24830        0.00760
C          1.67200        3.28260        0.92440
O          0.76480        2.50420        0.17770
C          3.83860        4.34270       -2.16100
H          1.76970        3.81650       -1.98330
H          3.36930        4.53970        0.54460
H          1.13000        3.86760        1.69550
H          2.36180        2.61470        1.48660
H          0.19830        2.01340       -2.39330
H         -0.44810        0.72610       -1.30400
H          0.93100        0.35710       -2.39750
Cl         3.45350        6.07650       -2.34880
Cl         5.42780        4.23350       -1.35180
Cl         4.00450        3.66430       -3.80390
