14
TSA8_9_F_Cl_F
C          1.52300       -1.46590       -1.09590
C          1.28630       -1.27160        0.37830
F          1.08400       -0.34390       -1.77820
H          2.62080       -1.55040       -1.24860
Cl         2.63820       -1.31710        1.49930
C          0.90140       -2.73830       -1.71560
C         -0.60800       -2.80030       -1.69610
C         -1.31610       -3.03350       -0.58720
O          0.17450       -1.00750        0.80490
F          1.30420       -2.78260       -3.03990
H          1.30760       -3.64630       -1.21890
H         -1.14520       -2.69840       -2.63500
H         -0.83340       -3.19350        0.37000
H         -2.39850       -3.09000       -0.63830
