23
TSA8_9_CCl3_I_Et
C          1.63360       -1.50330        1.55310
C          2.99210       -1.26230        2.23720
C          1.75370       -2.12550        0.11350
H          1.23170       -0.47940        1.37850
I          4.91030       -1.94150        1.60560
C          0.64170       -2.14700        2.60940
C         -0.82720       -1.95080        2.27230
C         -1.62430       -1.14880        2.98590
O          3.01410       -0.58680        3.25450
C          0.93650       -3.60840        3.04910
H          0.81870       -1.54320        3.52790
H         -1.27060       -2.47670        1.43710
H         -1.25140       -0.59280        3.84030
H         -2.66910       -1.04210        2.71230
Cl         2.55340       -3.72190        0.04130
Cl         0.18280       -2.26820       -0.71330
Cl         2.70260       -1.02350       -0.92760
C          0.25610       -4.71730        2.23140
H          0.53550       -3.73850        4.07870
H          2.03440       -3.76550        3.10680
H         -0.84740       -4.64560        2.32790
H          0.55980       -5.70610        2.63510
H          0.49450       -4.68920        1.15970
