22
TSA8_9_CN_OMe_CF3
C          1.65840       -0.06560        0.01060
C          1.49600       -1.25880       -0.62050
C          1.80860        1.22810       -0.60620
H          1.59950       -0.06100        1.09420
O          1.54410       -2.35790        0.16570
C          3.56930       -0.65560       -4.36350
C          2.93420       -0.28270       -3.23900
C          1.47400       -0.58500       -3.02330
O          1.33930       -1.45570       -1.96830
C          5.01330       -0.33450       -4.66210
H          3.02760       -1.21280       -5.12010
H          3.47170        0.24830       -2.46200
H          1.03610       -1.06730       -3.93060
H          0.88490        0.33870       -2.85380
N          1.93000        2.27750       -1.07820
C          1.99680       -3.56740       -0.32490
H          2.19510       -4.25360        0.52070
H          2.96840       -3.41430       -0.85360
H          1.26230       -4.02210       -1.02060
F          5.60370        0.41930       -3.66220
F          5.72550       -1.50800       -4.81890
F          5.07250        0.38020       -5.84490
