25
TSA8_9_Me_NO2_Et
C          2.92590       -1.33870       -0.36960
C          1.60100       -1.50600        0.37110
C          2.87030        0.00220       -1.13040
H          3.74660       -1.27370        0.37490
N          1.54490       -1.56510        1.73260
C          3.20330       -2.60770       -1.24410
C          2.29470       -2.68790       -2.45610
C          1.39610       -3.66580       -2.60810
O          0.56550       -1.58670       -0.27780
C          4.68420       -2.84320       -1.65130
H          2.99300       -3.47550       -0.57550
H          2.37310       -1.93310       -3.23210
H          1.27980       -4.44530       -1.86190
H          0.76610       -3.68880       -3.49150
H          2.04820        0.00780       -1.87660
H          3.80530        0.25220       -1.64790
H          2.67910        0.82650       -0.40990
O          0.49290       -1.69560        2.28370
O          2.63870       -1.48070        2.45980
C          5.33060       -1.85090       -2.61770
H          4.73090       -3.84280       -2.13840
H          5.31170       -2.89590       -0.73480
H          4.74000       -1.75510       -3.55170
H          6.34180       -2.22360       -2.88600
H          5.48740       -0.86710       -2.14650
