21
TSA8_9_CBr3_CN_Me
C          0.62300       -1.49410        1.09080
C          1.76530       -0.60950        1.61990
C          0.72220       -1.50580       -0.51950
H         -0.07860       -0.66350        1.02610
C          3.09110       -1.24960        1.80190
C         -0.29970       -2.14400        2.30520
C          0.23740       -1.52890        3.59780
C          0.34180       -0.03540        3.43890
O          1.44300        0.34720        2.62940
C         -0.69940       -3.54850        2.87730
H         -1.33320       -1.76840        2.12490
H          1.24100       -1.96110        3.85910
H          0.46480        0.38870        4.45140
H         -0.61450        0.34770        3.01080
Br        -0.09130        0.10880       -1.33290
Br         2.55580       -1.34280       -1.22940
Br        -0.01410       -3.03360       -1.41460
N          4.12210       -1.71140        1.95460
H          0.11900       -4.14160        3.34130
H         -1.35930       -4.17020        2.24830
H         -1.37740       -3.33620        3.76340
