20
TSA8_9_CBr3_CHF2_F
C          1.42390       -0.52050        0.16050
C          2.00250       -1.09300        1.25680
C          2.06050       -0.22390       -1.18800
H          0.38020       -0.24890        0.22720
C          3.45040       -1.52850        1.30390
C         -1.05010       -0.68100        4.80680
C         -0.44830       -1.53710        3.97340
C         -0.07940       -1.15380        2.57060
O          1.28050       -1.32370        2.39530
F         -1.36910       -1.07060        6.06800
H         -1.29640        0.32810        4.48990
H         -0.22080       -2.54140        4.31910
H         -0.36190       -0.09680        2.36940
H         -0.62790       -1.81990        1.87030
Br         0.71840        0.54620       -2.36110
Br         3.48920        1.08270       -1.08930
Br         2.68840       -1.83860       -2.06010
F          4.29770       -0.44480        1.19980
F          3.71640       -2.15550        2.50880
H          3.66650       -2.25650        0.49970
