24
TSA8_9_CH2F_CCl3_OMe
C          2.81600       -0.79150       -1.45950
C          1.57570       -1.66410       -1.58150
C          2.41240        0.60240       -0.95140
H          3.47930       -1.22040       -0.67550
C          1.38560       -2.88520       -0.70410
C          3.65160       -0.78450       -2.77820
C          2.91570       -0.26270       -4.00070
C          2.57110        1.01760       -4.16670
O          0.70930       -1.35940       -2.39010
O          4.05220       -2.12370       -3.02810
H          4.54160       -0.13390       -2.59530
H          2.68780       -0.95820       -4.80400
H          2.06150        1.32460       -5.07420
H          2.80620        1.77320       -3.42770
F          3.52940        1.40400       -0.79580
H          1.91490        0.50520        0.03740
H          1.68800        1.09610       -1.62790
Cl         2.70020       -4.05780       -0.97220
Cl         1.38260       -2.40630        1.01240
Cl        -0.16240       -3.71060       -1.04600
C          5.29630       -2.16130       -3.69510
H          5.55540       -3.22180       -3.89070
H          6.10730       -1.74030       -3.06090
H          5.24260       -1.64950       -4.68100
