24
TSA8_9_CH2F_CCl3_OMe
C          1.65660       -0.10060       -0.06590
C          1.43510       -1.07530       -0.99220
C          1.76430        1.37760       -0.32950
H          1.73940       -0.35810        0.98190
C          1.25520       -2.53470       -0.59620
C          4.24940       -1.21540       -4.01700
C          2.92770       -1.00660       -4.05590
C          2.25600       -0.08700       -3.07840
O          1.36470       -0.83460       -2.33180
O          4.82700       -2.07870       -4.88300
H          4.85750       -0.69850       -3.27670
H          2.32070       -1.53200       -4.78800
H          1.71360        0.71210       -3.62430
H          3.03080        0.37680       -2.43120
F          3.02350        1.81880        0.03010
H          1.00960        1.90120        0.29340
H          1.55570        1.66780       -1.37400
Cl         2.50410       -3.50900       -1.41080
Cl         1.35900       -2.89080        1.15630
Cl        -0.34130       -3.09200       -1.15920
C          6.17370       -2.37990       -4.85930
H          6.29950       -3.46660       -4.67060
H          6.71590       -1.82010       -4.06510
H          6.62240       -2.12860       -5.84140
