24
TSA8_9_CH2F_CCl3_OMe
C          3.03510       -0.57590       -1.26290
C          1.57590       -1.08970       -1.40710
C          2.99490        0.88310       -0.75690
H          3.57090       -1.10450       -0.44480
C          1.30220       -2.59680       -1.18360
C          3.83430       -0.74020       -2.58510
C          2.91520       -0.70650       -3.82520
C          1.60390        0.02510       -3.55510
O          0.83080       -0.55240       -2.50560
O          4.52140       -1.98110       -2.55870
H          4.56080        0.10640       -2.62140
H          2.63590       -1.73420       -4.12920
H          1.00480       -0.03180       -4.48790
H          1.77510        1.10190       -3.37630
F          4.27800        1.34180       -0.51170
H          2.43390        0.92120        0.20170
H          2.50290        1.58420       -1.45080
Cl         1.98720       -3.66230       -2.43390
Cl         1.93340       -3.11540        0.40140
Cl        -0.45950       -2.86620       -1.15210
C          5.67180       -1.93180       -3.37610
H          6.10080       -2.95250       -3.43780
H          6.44590       -1.26950       -2.92980
H          5.42630       -1.62380       -4.41680
