19
TSA8_9_NH2_H_Me
C          1.53440        2.54180        0.51120
C          1.52070        1.42210       -0.50400
N          1.24260        2.02480        1.85200
H          2.56610        2.95990        0.52300
H          2.42470        1.18740       -1.05580
C          0.57690        3.70130        0.11840
C         -0.86940        3.25950        0.03040
C         -1.56130        3.33460       -1.11140
O          0.51040        0.76600       -0.70650
C          0.68600        4.86230        1.11460
H          0.91060        4.08440       -0.87300
H         -1.36660        2.87490        0.91570
H         -1.10720        3.71500       -2.02140
H         -2.59680        3.01190       -1.14070
H          1.97530        1.32780        2.12040
H          0.31440        1.54580        1.87210
H          1.73370        5.22770        1.16710
H          0.36660        4.54570        2.13120
H          0.04000        5.70600        0.78930
