20
TSA8_9_CF3_CN_NH2
C          1.41450       -1.81180       -0.86030
C          2.44700       -2.26080        0.15090
C          1.92970       -0.61140       -1.71950
H          0.53630       -1.44000       -0.28650
C          2.14890       -2.19150        1.56100
C          0.87700       -3.03740       -1.66280
C         -0.45190       -2.71170       -2.31870
C         -1.56190       -2.59240       -1.57690
O          3.50140       -2.75840       -0.21020
N          1.84510       -3.55630       -2.63360
H          0.66700       -3.86040       -0.94070
H         -0.52280       -2.58800       -3.39490
H         -1.52930       -2.74370       -0.49990
H         -2.51610       -2.36530       -2.03850
F          3.31280       -0.59560       -1.80340
F          1.42250       -0.63070       -3.00610
F          1.52520        0.57440       -1.13190
N          1.90170       -2.15040        2.69070
H          1.92020       -2.92880       -3.46500
H          1.49640       -4.48090       -2.98140
