17
TSA8_9_H_CHF2_I
C          3.15280        1.51240       -0.63370
C          1.66030        1.33600       -0.77920
H          3.59190        0.58810       -0.19950
H          3.59660        1.65940       -1.64250
C          1.01860        1.41370       -2.13580
C          3.52270        2.72870        0.22960
C          3.06520        2.56380        1.65630
C          2.22140        3.42430        2.23340
O          0.97260        1.11250        0.20610
I          5.64880        2.96670        0.24140
H          3.08750        3.64370       -0.23060
H          3.43430        1.72040        2.23280
H          1.83100        4.27940        1.69040
H          1.91480        3.27330        3.26340
F         -0.34720        1.20780       -2.04460
F          1.25050        2.65950       -2.68890
H          1.45480        0.63460       -2.79520
