17
TSA8_9_H_CHF2_I
C          3.13620        1.39170       -0.32400
C          1.58260        1.48870       -0.44470
H          3.39380        0.76870        0.55990
H          3.57940        0.89770       -1.21540
C          1.12850        1.61830       -1.90190
C          3.70650        2.78970       -0.08960
C          3.10570        3.38860        1.19490
C          1.72160        2.78750        1.50070
O          1.00560        2.56110        0.30650
I          5.84490        2.78240        0.00150
H          3.41500        3.43090       -0.94640
H          3.73780        3.20610        2.09060
H          1.15790        3.47610        2.16320
H          1.82050        1.82910        2.06240
F         -0.25270        1.58490       -1.95780
F          1.57250        2.80380       -2.45840
H          1.52170        0.76680       -2.49600
