25
TSA8_9_CBr3_Et_NH2
C          2.60510        1.03680       -0.44410
C          1.31790        0.99700       -1.25980
C          2.29190        0.98030        1.09290
H          3.16070        0.09560       -0.65120
C          1.01900       -0.14280       -2.20070
C          3.52070        2.18850       -0.99640
C          2.88700        3.56840       -1.00210
C          2.62810        4.21810       -2.14310
O          0.49590        1.89600       -1.14910
N          4.81660        2.24100       -0.31920
H          3.72340        1.90300       -2.05450
H          2.64390        4.05850       -0.06850
H          2.85760        3.77580       -3.10790
H          2.18010        5.20530       -2.11620
Br         1.15580       -0.55430        1.47520
Br         3.87610        0.66970        2.17720
Br         1.36680        2.53360        1.80560
C          2.02620       -0.20000       -3.34700
H          0.00670       -0.00610       -2.64090
H          1.02780       -1.10120       -1.64020
H          2.00580        0.75230       -3.91910
H          1.76070       -1.03190       -4.03210
H          3.05400       -0.37490       -2.96720
H          4.71300        2.71820        0.60530
H          5.47080        2.83020       -0.88460
