23
TSA8_9_Me_CHF2_CF3
C          2.97970        1.36950       -0.11360
C          1.59720        1.34410       -0.73830
C          3.11470        0.18680        0.86190
H          3.71630        1.20630       -0.93150
C          1.44380        1.14090       -2.21970
C          3.27720        2.77230        0.51050
C          2.36980        3.08500        1.68480
C          1.50530        4.10410        1.66360
O          0.60220        1.47740       -0.03920
C          4.74910        2.95550        0.93940
H          3.10560        3.51550       -0.30240
H          2.42360        2.46910        2.57750
H          1.41710        4.74970        0.79510
H          0.87550        4.29720        2.52600
H          2.39840        0.27320        1.70530
H          4.14300        0.10600        1.26250
H          2.90220       -0.76350        0.32650
F          0.10720        1.13680       -2.57910
F          2.08980        2.15820       -2.89810
H          1.89450        0.16770       -2.50630
F          5.08230        2.12980        1.99730
F          5.59210        2.69030       -0.12540
F          4.95210        4.26620        1.33590
