23
TSA8_9_Me_CHF2_CF3
C          1.78580        0.08380       -0.10250
C          1.46960        1.18270       -0.84760
C          2.04920       -0.05850        1.37250
H          1.85570       -0.86770       -0.62320
C          1.23070        0.99190       -2.32390
C          3.88450        4.24950        0.95960
C          3.17230        3.11000        0.93620
C          1.67430        3.11640        0.75510
O          1.33150        2.47470       -0.41670
C          5.38080        4.27990        1.12070
H          3.37640        5.20400        0.85330
H          3.67860        2.15720        1.03610
H          1.31250        4.16350        0.67370
H          1.12880        2.69350        1.61820
H          1.97950        0.84880        1.97570
H          3.06930       -0.47230        1.51310
H          1.31830       -0.78120        1.79130
F         -0.05320        1.39850       -2.63590
F          2.13330        1.76220       -3.03360
H          1.34860       -0.06500       -2.64610
F          5.91720        3.00920        1.24440
F          5.93970        4.89330        0.01530
F          5.69900        5.01010        2.24960
