19
TSA8_9_H_CH2F_NH2
C          2.03420        2.18770        0.07410
C          0.96770        2.43290       -0.96160
H          1.62750        1.46330        0.81120
H          2.92980        1.72870       -0.40050
C          1.21850        2.10010       -2.40360
C          2.44630        3.49560        0.78190
C          3.46280        3.23110        1.87380
C          3.18070        2.46650        2.93390
O         -0.11080        2.89650       -0.62060
N          2.99010        4.43960       -0.19830
H          1.54810        3.95470        1.25280
H          4.44860        3.68400        1.81020
H          2.20600        2.00330        3.05040
H          3.93030        2.30500        3.70160
F          0.10750        2.39350       -3.17530
H          1.44780        1.01820       -2.49980
H          2.08210        2.68990       -2.77590
H          3.86440        4.05380       -0.62420
H          3.21870        5.34310        0.27580
