14
TSA8_9_F_I_H
C          1.06390       -1.29660       -0.66570
C          1.76180       -1.22190        0.66430
F          2.00190       -1.15730       -1.67360
H          0.33570       -0.46130       -0.75030
I          1.25450        0.28580        2.05200
C          0.32210       -2.62760       -0.84420
C         -0.76660       -2.78720        0.18570
C         -0.78020       -3.80640        1.04940
O          2.62950       -2.03100        0.95290
H         -0.14880       -2.64630       -1.85020
H          1.05150       -3.46650       -0.79290
H         -1.56320       -2.04980        0.22590
H         -0.00050       -4.56180        1.04040
H         -1.58030       -3.88810        1.77780
