19
TSA8_9_Br_NO2_CF3
C          1.77500        0.14180        0.07900
C          1.45060        1.21310        0.83740
Br         1.99400       -1.64400        0.74370
H          1.88630        0.24820       -0.99480
N          1.23360        2.48350        0.22370
C          3.07830        3.12240        3.41770
C          3.35980        1.84840        3.09960
C          2.28610        0.79500        3.09210
O          1.28740        1.11540        2.18660
C          4.11400        4.21350        3.44290
H          2.05690        3.39340        3.67270
H          4.37280        1.55100        2.84550
H          1.84130        0.73110        4.10740
H          2.73960       -0.18610        2.86400
O          0.92840        3.42190        0.89530
O          1.36180        2.64100       -1.07740
F          5.37030        3.74450        3.09810
F          3.74710        5.20380        2.55150
F          4.17180        4.75120        4.71470
