21
TSA8_9_Cl_OMe_Me
C          1.43800       -0.20140       -0.40690
C          1.72040        1.01410        0.07250
Cl         1.06570       -1.54970        0.66190
H          1.44450       -0.37930       -1.47870
O          1.99060        2.00840       -0.81910
C          4.28770        0.52200        3.45850
C          3.02760        0.95560        3.30410
C          2.63040        1.86290        2.17590
O          1.68240        1.20830        1.41910
C          4.67340       -0.40200        4.57530
H          5.06100        0.83020        2.76170
H          2.25430        0.64000        4.00010
H          3.52430        2.11580        1.56880
H          2.19420        2.79140        2.59840
C          2.13620        3.35140       -0.54100
H          2.23210        3.90360       -1.49820
H          3.05670        3.55100        0.03780
H          1.24310        3.73180       -0.00140
H          5.07970       -1.34030        4.14480
H          3.80660       -0.65440        5.22230
H          5.45510        0.08100        5.19680
