21
TSA8_9_Cl_OMe_Me
C          2.68430        0.11760        1.33740
C          2.02040        1.41860        0.85790
Cl         1.39220       -1.06210        1.72640
H          3.29330       -0.31820        0.51590
O          2.94630        2.31420        0.29190
C          3.58050        0.43520        2.55450
C          2.75600        1.17560        3.61460
C          2.10420        2.40690        2.97230
O          1.26500        2.04240        1.88780
C          4.24380       -0.81380        3.14540
H          4.39450        1.11590        2.21780
H          1.96270        0.51400        4.02620
H          2.87420        3.14380        2.65070
H          1.48590        2.91490        3.74100
C          2.43360        2.70730       -0.95520
H          2.41500        1.85180       -1.66740
H          3.10420        3.48140       -1.38040
H          1.42760        3.17610       -0.85400
H          4.85750       -1.32100        2.37160
H          3.48610       -1.52860        3.52980
H          4.90850       -0.52400        3.98700
