17
TSA8_9_CBr3_H_H
C          1.80930        0.03140       -0.00740
C          1.14110        1.03180        0.59270
C          2.09680       -1.35490        0.53780
H          2.18870        0.23320       -1.00560
H          1.02220        1.96550        0.04750
C         -0.19620        2.16060        4.89040
C         -0.54600        1.49170        3.78790
C         -0.11180        1.92990        2.42010
O          0.61490        0.91920        1.83250
H         -0.52870        1.81370        5.86340
H          0.41880        3.05370        4.83600
H         -1.16290        0.60240        3.88140
H          0.50790        2.85310        2.47440
H         -1.01700        2.14280        1.81060
Br         1.32990       -2.64860       -0.68020
Br         4.01500       -1.60920        0.55910
Br         1.43560       -1.77760        2.32010
