17
TSA8_9_CBr3_H_H
C          1.69300        0.66730        1.97170
C          1.25550        1.53500        0.77510
C          1.59220       -0.85940        1.66140
H          2.77430        0.85020        2.15920
H          1.59960        2.59000        0.87540
C          0.93450        1.17430        3.22160
C         -0.56910        1.27830        2.97410
C         -0.80760        2.07870        1.68570
O         -0.14850        1.48150        0.58040
H          1.15270        0.56720        4.12370
H          1.28950        2.20700        3.43580
H         -1.03070        0.27710        2.90230
H         -0.48750        3.13800        1.81190
H         -1.89860        2.10130        1.48260
Br        -0.15460       -1.53900        1.13660
Br         2.79360       -1.28350        0.19370
Br         2.19860       -1.90730        3.18060
