16
TSA8_9_NO2_F_H
C          1.90930        0.01320       -0.13850
C          1.19800       -0.23870       -1.24990
N          2.08570        1.31840        0.40790
H          2.37250       -0.82850        0.37030
F          1.09160       -1.52660       -1.67970
C         -0.42710        2.28640       -4.80070
C         -0.70030        1.84230       -3.57040
C         -0.17510        0.53170       -3.06230
O          0.59120        0.75720       -1.94030
H         -0.82510        3.23950       -5.13370
H          0.18980        1.71030       -5.48370
H         -1.32200        2.44600       -2.91560
H          0.43860        0.01990       -3.83730
H         -1.03780       -0.11900       -2.80160
O          2.73200        1.45320        1.40170
O          1.54630        2.37900       -0.15530
