21
TSA8_9_CBr3_NO2_NO2
C          2.36040       -1.86370       -0.26420
C          1.50710       -1.42770        0.93170
C          2.33710       -0.74530       -1.37540
H          3.41050       -1.93350        0.08550
N          2.06140       -1.17060        2.15210
C          1.95240       -3.33450       -0.66350
C          0.65140       -3.39570       -1.43050
C         -0.44530       -3.97380       -0.93110
O          0.29550       -1.32160        0.79230
N          2.97530       -4.06610       -1.40180
H          1.83430       -3.89420        0.29360
H          0.60700       -2.97200       -2.42780
H         -0.44740       -4.41690        0.05990
H         -1.35680       -4.00250       -1.51910
Br         3.12240        0.87660       -0.64380
Br         3.37940       -1.15240       -2.96030
Br         0.56380       -0.22800       -2.00590
O          1.36790       -0.83960        3.06660
O          3.35880       -1.28100        2.34470
O          4.06340       -3.60940       -1.58130
O          2.75720       -5.32460       -1.72010
