21
TSA8_9_CBr3_NO2_NO2
C          2.30190       -2.00240       -0.38620
C          1.20900       -1.64210        0.69080
C          2.25230       -1.02010       -1.61710
H          3.30770       -1.85130        0.06630
N          1.82050       -1.13790        1.91070
C          2.19320       -3.53210       -0.67350
C          0.75620       -3.93840       -1.05000
C         -0.26560       -3.20210       -0.16800
O          0.35110       -2.73850        1.01150
N          3.19000       -4.03650       -1.60180
H          2.38060       -4.03740        0.30230
H          0.48290       -3.81980       -2.11880
H         -1.09440       -3.89630        0.08010
H         -0.74740       -2.35430       -0.70010
Br         2.45140        0.82150       -1.03470
Br         3.72290       -1.29490       -2.85560
Br         0.62590       -1.05530       -2.67620
O          1.63180       -1.68640        2.95480
O          2.57130       -0.05900        1.88160
O          4.34950       -3.94140       -1.33280
O          2.83550       -4.67590       -2.69700
