21
TSA8_9_Me_OH_Me
C          2.03970        2.09300        0.48950
C          0.58880        1.63530        0.84140
C          3.02220        0.91170        0.59160
H          2.06800        2.41520       -0.57650
O         -0.29740        2.11090       -0.12770
C          2.40170        3.28800        1.39710
C          2.27170        2.89630        2.88180
C          1.12320        1.89410        3.09540
O          0.12280        2.07270        2.11880
C          3.76610        3.91770        1.09930
H          1.63140        4.06710        1.19760
H          3.19520        2.45210        3.31320
H          0.70020        2.03820        4.11070
H          1.48100        0.84140        3.07410
H          3.10360        0.50600        1.61740
H          4.03550        1.21980        0.26220
H          2.68890        0.09230       -0.08040
H         -0.65990        1.29590       -0.55800
H          3.81610        4.23020        0.03460
H          4.59160        3.20600        1.30760
H          3.91270        4.81600        1.73610
