16
TSA8_9_F_OH_OH
C          1.12800       -1.53910       -1.21570
C          0.93770       -1.29390        0.26360
F          0.61120       -0.46290       -1.91790
H          2.22070       -1.57990       -1.41690
O          1.99770       -1.26190        1.09970
C          0.53910       -2.86180       -1.76510
C         -0.96380       -2.99830       -1.63310
C         -1.57400       -3.24040       -0.46890
O         -0.17210       -1.05550        0.70990
O          0.87140       -2.92640       -3.12880
H          1.02960       -3.71390       -1.23720
H         -1.57540       -2.95090       -2.53000
H         -1.01200       -3.35090        0.45190
H         -2.65220       -3.35490       -0.43570
H          2.90040       -1.42420        0.79180
H          0.81550       -3.88140       -3.39700
