20
TSA8_9_NO2_Me_OH
C          2.61390        1.35280        0.90520
C          1.48680        1.63050       -0.06930
N          2.58540       -0.04370        1.30690
H          3.56480        1.54710        0.35520
C          1.79630        2.13080       -1.44930
C          2.66790        2.29110        2.14580
C          1.50160        2.19090        3.10950
C          0.27850        2.65510        2.83930
O          0.32580        1.40920        0.23680
O          3.84450        1.98040        2.85000
H          2.73950        3.34330        1.77920
H          1.67560        1.76080        4.09230
H          0.04970        3.14200        1.89930
H         -0.50670        2.57050        3.58370
O          3.49390       -0.76570        1.02510
O          1.55840       -0.52950        1.97230
H          2.31990        3.10730       -1.38230
H          0.86430        2.26410       -2.03910
H          2.44880        1.40100       -1.97300
H          4.11650        2.79940        3.34220
