17
TSA8_9_Cl_Br_CHF2
C          1.98380        1.20890       -1.92430
C          0.74980        0.74970       -2.65480
Cl         1.67560        1.06500       -0.16660
H          2.82790        0.53050       -2.17600
Br         0.82970       -0.75780       -3.82850
C          2.36790        2.66300       -2.29900
C          3.59380        3.09240       -1.52090
C          3.56810        4.12460       -0.67210
O         -0.31240        1.33390       -2.50580
C          2.65260        2.80960       -3.80640
H          1.51030        3.32780       -2.04730
H          4.52360        2.54610       -1.65420
H          2.65970        4.69660       -0.50890
H          4.46590        4.40390       -0.13070
F          2.96340        4.12510       -4.10420
F          3.70730        1.99820       -4.18990
H          1.75650        2.52900       -4.39840
