20
TSA8_9_CF3_I_Me
C          1.87430       -0.02730        0.08740
C          1.53220       -0.70570        1.19620
C          1.83720       -0.57290       -1.31900
H          2.21390        0.99790        0.20090
I          1.66690        0.25410        3.07480
C          4.12890       -3.12850        2.44660
C          3.37410       -2.80990        1.38770
C          1.89490       -3.11800        1.33180
O          1.10160       -1.99200        1.15760
C          5.59180       -2.80900        2.46420
H          3.68880       -3.62440        3.30710
H          3.83020       -2.31720        0.53300
H          1.55740       -3.64900        2.24740
H          1.72970       -3.79670        0.46870
F          3.11370       -0.53140       -1.84670
F          1.37490       -1.87440       -1.38050
F          1.00980        0.22370       -2.08710
H          5.74050       -1.71230        2.37140
H          6.10140       -3.32150        1.62100
H          6.04090       -3.15390        3.41860
