21
TSA8_9_H_OMe_Me
C          3.44670        1.14450       -0.65240
C          2.13230        0.88090       -1.39980
H          3.21600        1.24310        0.43110
H          4.14220        0.28850       -0.78700
O          2.34690        0.56640       -2.75460
C          4.07230        2.44590       -1.17070
C          3.03590        3.56730       -1.04460
C          1.75720        3.15500       -1.78640
O          1.21340        1.95450       -1.25690
C          5.34970        2.79230       -0.40440
H          4.33430        2.32210       -2.24550
H          2.79250        3.74780        0.02630
H          1.94270        3.06000       -2.87960
H          1.00910        3.96500       -1.66190
C          2.02170       -0.78960       -2.92120
H          2.17670       -1.05780       -3.98630
H          0.95000       -0.98120       -2.68650
H          2.69430       -1.44160       -2.31910
H          5.13540        2.92850        0.67750
H          5.78910        3.73090       -0.80440
H          6.09570        1.97760       -0.52180
