22
TSA8_9_CH2F_CBr3_NO2
C          2.39430       -1.85350       -0.15210
C          1.20780       -1.48560        0.81060
C          2.30000       -0.92060       -1.38360
H          3.36960       -1.65570        0.34340
C          1.64260       -1.00210        2.20610
C          2.29690       -3.37690       -0.46530
C          0.92130       -3.70470       -1.06990
C         -0.18750       -2.90390       -0.36340
O          0.23560       -2.52380        0.92950
N          3.37400       -3.94070       -1.26430
H          2.33340       -3.89640        0.51840
H          0.85380       -3.52880       -2.16530
H         -1.10590       -3.52320       -0.30370
H         -0.47520       -2.00190       -0.95080
F          3.35270       -1.08800       -2.25970
H          2.32540        0.13570       -1.04070
H          1.35460       -1.06760       -1.94160
Br         2.78500        0.56300        2.08120
Br         0.07910       -0.48700        3.23070
Br         2.57810       -2.39580        3.18260
O          4.31670       -3.28680       -1.59000
O          3.37760       -5.23260       -1.51480
