22
TSA8_9_NO2_CBr3_CF3
C          2.73670       -2.06770        0.65520
C          1.29970       -1.61350        1.06820
N          3.17220       -1.29480       -0.49620
H          3.44990       -1.89890        1.49450
C          1.22530       -0.81080        2.37720
C          2.73460       -3.59300        0.37530
C          1.58420       -3.99110       -0.56870
C          0.30440       -3.20110       -0.23980
O          0.36870       -2.68790        1.07570
C          4.08930       -4.15550       -0.08590
H          2.49950       -4.07360        1.35270
H          1.81090       -3.88200       -1.65120
H         -0.57740       -3.86420       -0.35430
H          0.15150       -2.37210       -0.97130
O          4.15150       -0.61610       -0.42200
O          2.48710       -1.31430       -1.61920
Br        -0.59060       -0.19290        2.65640
Br         1.73670       -1.90750        3.89650
Br         2.36900        0.75590        2.30870
F          4.44730       -3.63620       -1.31730
F          5.07020       -3.84080        0.83800
F          4.00970       -5.53310       -0.19100
