18
TSA8_9_H_NH2_NH2
C          2.10220        0.86990        1.94130
C          1.10600        2.00040        1.86770
H          1.56920       -0.06380        1.66370
H          2.92430        1.02340        1.20720
N          1.29610        3.04250        1.02530
C          2.70260        0.74450        3.35730
C          3.61670       -0.45940        3.46260
C          3.16360       -1.70630        3.29210
O          0.10890        1.96940        2.57380
N          3.43540        1.96860        3.69370
H          1.88000        0.61180        4.09410
H          4.66750       -0.31810        3.70060
H          2.11900       -1.89920        3.06810
H          3.84150       -2.54840        3.38440
H          0.60680        3.80760        0.97910
H          2.12780        3.08880        0.41950
H          4.24880        2.09170        3.04630
H          3.79540        1.90250        4.67390
