20
TSA8_9_CHF2_OH_NH2
C          2.04200        0.26620       -0.07000
C          1.61690        0.99240       -1.14960
C          1.84240        0.36240        1.42830
H          2.66210       -0.59440       -0.30980
O          1.99220        0.55090       -2.37450
C          1.75710        5.06790        0.28840
C          1.60640        3.73960        0.39670
C          0.42700        3.02220       -0.21390
O          0.84750        2.12330       -1.16920
N          2.87410        5.72310        0.86380
H          1.02110        5.66210       -0.24570
H          2.35610        3.16700        0.93210
H         -0.22970        3.75870       -0.72440
H         -0.23020        2.53680        0.52610
F          3.07570        0.51190        2.03400
F          1.01210        1.35060        1.88200
H          1.40440       -0.59950        1.76800
H          2.53600       -0.23690       -2.52120
H          3.59540        5.19640        1.37810
H          2.97220        6.74380        0.76890
