15
TSA8_9_Cl_CN_F
C          1.66460       -1.84400        0.06860
C          2.30110       -1.60350        1.40510
Cl         2.70460       -1.29400       -1.28070
H          0.77860       -1.17090        0.02490
C          1.55660       -0.84460        2.38670
C          1.19820       -3.31600       -0.09730
C         -0.26660       -3.30720       -0.43240
C         -1.15940       -3.02910        0.52570
O          3.35780       -2.13500        1.70300
F          1.91510       -3.96760       -1.08780
H          1.32450       -3.91120        0.83700
H         -0.59490       -3.48120       -1.45160
H         -0.83020       -2.86300        1.55030
H         -2.21630       -2.97040        0.30100
N          0.95020       -0.25870        3.17700
