20
TSA8_9_CHF2_I_CBr3
C          1.48720       -2.07000        1.54030
C          1.07290       -0.58660        1.64100
C          1.40610       -2.50000        0.06090
H          2.55830       -2.13820        1.82810
I          1.77130        0.45200        3.39880
C          0.60910       -2.87670        2.55340
C         -0.87750       -2.56620        2.30450
C         -1.10300       -1.05070        2.33050
O         -0.30490       -0.38600        1.36610
C          0.85470       -4.40830        2.68690
H          0.86550       -2.45990        3.55290
H         -1.20790       -2.96840        1.32450
H         -0.92820       -0.64290        3.34890
H         -2.17070       -0.85660        2.09880
F          2.12360       -1.60870       -0.71840
F          1.97530       -3.74370       -0.12020
H          0.35900       -2.50740       -0.30460
Br        -0.06410       -5.05470        4.27360
Br         0.17450       -5.49190        1.21640
Br         2.73900       -4.80200        2.94540
