26
TSA8_9_CF3_Et_CH2F
C          1.73690        0.12330       -0.11600
C          1.35710        1.25730       -0.76510
C          1.90370       -0.06750        1.37560
H          1.88700       -0.78080       -0.69910
C          1.06000        1.18120       -2.25170
C          2.56980        4.93570       -1.12090
C          3.06700        3.91470       -0.40570
C          2.20690        3.12450        0.54030
O          1.18910        2.45370       -0.13060
C          3.40330        5.74640       -2.07520
H          1.52030        5.19590       -1.01990
H          4.11670        3.64700       -0.48530
H          1.76300        3.81440        1.28760
H          2.87980        2.42190        1.06860
F          3.23430       -0.29840        1.66810
F          1.43580        0.99560        2.12510
F          1.17030       -1.17750        1.75110
C          1.82240        2.21720       -3.06540
H         -0.02420        1.36470       -2.40530
H          1.29190        0.17130       -2.65600
H          1.49590        3.23290       -2.77220
H          1.58120        2.09190       -4.14210
H          2.91760        2.10840       -2.92240
F          4.71830        5.31490       -2.12310
H          3.38610        6.80920       -1.75850
H          2.96650        5.66810       -3.09270
