26
TSA8_9_CF3_Et_CH2F
C          2.63070        1.97880       -1.02880
C          1.07600        1.89570       -0.83920
C          3.31970        0.98690       -0.06260
H          2.90320        1.63300       -2.04980
C          0.33220        1.28620       -2.03710
C          3.05540        3.47010       -0.90950
C          2.51510        4.11330        0.38110
C          1.10790        3.58990        0.71160
O          0.47320        3.12890       -0.46090
C          4.54540        3.77380       -1.11700
H          2.52370        3.97660       -1.74730
H          3.16400        3.97910        1.27300
H          0.51450        4.40180        1.17950
H          1.14700        2.77550        1.47180
F          4.67400        0.91020       -0.32480
F          3.13690        1.34690        1.25950
F          2.78990       -0.27760       -0.24970
C          0.35840        2.19290       -3.27040
H         -0.72690        1.12080       -1.74520
H          0.77790        0.29990       -2.28800
H         -0.11460        3.17160       -3.04200
H         -0.20840        1.71240       -4.09500
H          1.39660        2.36860       -3.61920
F          5.31400        3.31630       -0.06290
H          4.68690        4.87370       -1.18450
H          4.89970        3.32040       -2.06700
