20
TSA8_9_H_CCl3_CCl3
C          1.81910        0.22780        0.05180
C          1.56820        1.27700        0.86710
H          2.11770       -0.74190        0.42490
H          1.71870        0.29360       -1.02370
C          1.11860        2.62720        0.33370
C          3.23520        0.85780        5.22170
C          3.31890        0.94130        3.88420
C          2.35270        0.23430        2.98000
O          1.69080        1.18610        2.22460
C          4.20120        1.58270        6.12330
H          2.44990        0.25580        5.67130
H          4.10150        1.54040        3.42640
H          1.60380       -0.34020        3.56630
H          2.93720       -0.47600        2.36540
Cl         2.30550        3.85890        0.83100
Cl         0.94210        2.73500       -1.44540
Cl        -0.45530        3.04450        1.05600
Cl         3.80700        1.24950        7.82870
Cl         5.87200        1.04070        5.81510
Cl         4.09500        3.34290        5.85560
