20
TSA8_9_H_CCl3_CCl3
C          3.20900        1.72800        2.16230
C          1.98130        1.36410        1.25990
H          4.06160        1.08210        1.86110
H          3.52710        2.77750        2.00330
C          1.14330        2.57530        0.79940
C          2.88150        1.42630        3.63810
C          2.49690       -0.06780        3.77660
C          1.87860       -0.61500        2.48080
O          1.11860        0.38900        1.84830
C          3.99970        1.83980        4.62860
H          1.97880        2.01830        3.89560
H          3.34910       -0.73300        4.03250
H          1.24230       -1.49360        2.71370
H          2.67250       -0.98240        1.78810
Cl         2.14420        3.73530       -0.11570
Cl        -0.14400        2.01510       -0.29920
Cl         0.37600        3.42410        2.16820
Cl         3.50270        1.48570        6.30680
Cl         5.53700        0.98610        4.30490
Cl         4.30960        3.59590        4.53160
