23
TSA8_9_CF3_CH2F_CF3
C          2.56490       -1.69090       -0.33760
C          1.49010       -1.35600        0.68230
C          2.77950       -0.47310       -1.27280
H          3.51500       -1.82670        0.22610
C          1.83780       -1.28660        2.14230
C          2.24170       -3.06910       -1.01710
C          0.96920       -3.04040       -1.84180
C         -0.10290       -3.77130       -1.51960
O          0.34210       -1.13730        0.32180
C          3.38770       -3.64780       -1.87480
H          2.11670       -3.78810       -0.17390
H          0.92140       -2.41860       -2.72960
H         -0.10530       -4.41320       -0.64500
H         -0.99300       -3.72710       -2.13930
F          3.86010       -0.66560       -2.10870
F          1.65510       -0.21130       -2.03380
F          3.05030        0.64690       -0.50490
F          0.72370       -0.96880        2.89990
H          2.61500       -0.51020        2.30160
H          2.23210       -2.26920        2.47610
F          3.58350       -2.92150       -3.03420
F          4.56400       -3.67520       -1.14660
F          3.07370       -4.94640       -2.23750
