23
TSA8_9_CF3_CH2F_CF3
C          2.56660       -1.82230       -0.48900
C          1.31440       -1.64310        0.43260
C          2.64420       -0.62220       -1.45990
H          3.49300       -1.78990        0.12840
C          1.67940       -1.26230        1.86520
C          2.50280       -3.23760       -1.14250
C          1.12620       -3.50870       -1.77630
C         -0.00430       -2.94030       -0.90310
O          0.44650       -2.76750        0.42430
C          3.65220       -3.61310       -2.09540
H          2.58000       -3.94090       -0.28140
H          1.00880       -3.13050       -2.81460
H         -0.87380       -3.62840       -0.93120
H         -0.37620       -1.97200       -1.31630
F          3.81910       -0.65170       -2.18620
F          1.57110       -0.61120       -2.33220
F          2.63420        0.55820       -0.73750
F          0.52820       -1.02060        2.59160
H          2.30310       -0.34420        1.86790
H          2.24590       -2.08910        2.34460
F          3.58770       -2.89170       -3.27310
F          4.87130       -3.38600       -1.48210
F          3.56380       -4.95790       -2.41080
