17
TSA8_9_H_H_Me
C          2.13980       -0.25120       -0.32740
C          1.29920       -0.52420       -1.33490
H          2.83620        0.57760       -0.36360
H          2.12570       -0.86890        0.56520
H          0.61900       -1.36240       -1.22240
C          3.97400        0.70530       -4.46730
C          3.45380        0.61930       -3.23430
C          2.10040        1.19550       -2.90220
O          1.23410        0.19810       -2.48840
C          5.31580        0.12040       -4.78030
H          3.42420        1.20070       -5.26320
H          4.01790        0.11870       -2.45290
H          1.66060        1.67670       -3.80200
H          2.19030        1.97990       -2.12100
H          5.30540       -0.97410       -4.59090
H          6.09500        0.59650       -4.14860
H          5.56140        0.29680       -5.84870
