19
TSA8_9_H_NH2_CF3
C          3.18160       -1.10690        0.17310
C          1.70440       -1.33120        0.55150
H          3.20690       -0.76630       -0.88530
H          3.62500       -0.30780        0.80340
N          1.46410       -1.47930        1.98960
C          3.96480       -2.42310        0.29790
C          3.24280       -3.48850       -0.53520
C          1.78460       -3.59760       -0.07040
O          1.09120       -2.36550       -0.20730
C          5.42760       -2.26460       -0.14460
H          3.97180       -2.74960        1.36020
H          3.25930       -3.21300       -1.61310
H          1.72050       -3.98270        0.96940
H          1.28070       -4.35260       -0.70890
H          2.00610       -2.27590        2.38930
H          1.77710       -0.60490        2.46890
F          5.50180       -1.86440       -1.46860
F          6.05820       -1.31940        0.64540
F          6.09150       -3.47050       -0.00300
