18
TSA8_9_Br_OH_CH2F
C          2.55530       -1.77010       -1.81950
C          1.28180       -0.92560       -1.52170
Br         4.15690       -0.80240       -1.25750
H          2.53830       -2.68850       -1.19220
O          0.24460       -1.78490       -1.15140
C          2.54350       -2.12770       -3.31560
C          2.54210       -0.84360       -4.16850
C          1.87170        0.32720       -3.42630
O          0.81330       -0.12520       -2.61130
C          3.64740       -3.10460       -3.74490
H          1.57300       -2.64200       -3.49770
H          3.55860       -0.50330       -4.46340
H          1.49420        1.05770       -4.17100
H          2.60130        0.88900       -2.80380
H          0.04060       -1.54160       -0.21320
F          4.90630       -2.55300       -3.58920
H          3.51060       -3.37390       -4.81390
H          3.58310       -4.03490       -3.14150
