20
TSA8_9_CBr3_Cl_CH2F
C          1.53640       -0.44140       -0.20760
C          2.20940       -1.33530        0.55510
C          2.12690        0.34760       -1.35570
H          0.49460       -0.25400        0.02270
Cl         3.91940       -1.68000        0.31470
C          0.40700       -5.13370        1.18430
C          0.58060       -3.91110        0.66020
C          0.38450       -2.66400        1.47830
O          1.59400       -1.99710        1.57060
C          0.65640       -6.37070        0.37540
H          0.10130       -5.24580        2.22040
H          0.89740       -3.80890       -0.37660
H          0.05910       -2.92690        2.50690
H         -0.40570       -2.02430        1.03470
Br         0.78270        1.54360       -2.07950
Br         3.62200        1.45100       -0.79000
Br         2.68350       -0.83800       -2.78980
F         -0.18470       -6.40180       -0.71960
H          0.47300       -7.26840        1.00200
H          1.71370       -6.38690        0.03250
