16
TSA8_9_NH2_H_F
C          2.85100       -0.37740        1.11750
C          1.34810       -0.37670        1.52240
N          3.03230       -1.00650       -0.19260
H          3.21900        0.67040        1.04260
H          1.03120        0.65920        1.76490
C          3.66870       -1.10320        2.19410
C          3.10660       -2.50530        2.46280
C          1.56780       -2.49780        2.40770
O          1.06930       -1.19910        2.65160
F          5.01210       -1.16420        1.86750
H          3.56240       -0.52040        3.13550
H          3.47820       -3.27400        1.75050
H          1.17380       -3.20900        3.16280
H          1.19790       -2.86640        1.42270
H          2.53150       -0.44070       -0.91560
H          2.64090       -1.97430       -0.20720
