18
TSA8_9_OH_H_CCl3
C          2.94550       -1.78570       -0.60830
C          1.51540       -1.32580       -0.47020
O          3.81150       -0.69790       -0.40670
H          3.11750       -2.55030        0.18230
H          0.88570       -1.75900        0.29990
C          3.20800       -2.45370       -1.99160
C          3.04540       -1.43970       -3.11050
C          2.10710       -1.56640       -4.05410
O          1.05730       -0.45890       -1.19840
C          4.60040       -3.14570       -2.09330
H          2.45100       -3.26330       -2.10810
H          3.71050       -0.58190       -3.14980
H          1.41980       -2.40640       -4.05520
H          2.02330       -0.81980       -4.83720
H          3.78120       -0.48010        0.56200
Cl         4.76390       -3.96260       -3.67480
Cl         5.96810       -2.00480       -1.93100
Cl         4.78200       -4.41230       -0.84670
