19
TSA8_9_Br_CHF2_NO2
C          3.05990        0.12340        1.75360
C          1.56610        0.33210        1.64910
Br         3.77470       -0.17700       -0.03690
H          3.51670        1.06400        2.13250
C          0.95690        1.64400        2.05730
C          3.41420       -1.00360        2.76040
C          2.92320       -2.36150        2.30260
C          2.03410       -3.06970        3.00570
O          0.85020       -0.56210        1.22180
N          4.84720       -1.06040        2.99470
H          2.92260       -0.73710        3.72510
H          3.30600       -2.77910        1.37610
H          1.62500       -2.69390        3.93820
H          1.70870       -4.04010        2.64500
F         -0.41440        1.62750        1.87030
F          1.22700        1.88730        3.39130
H          1.39220        2.45920        1.44220
O          5.60270       -1.34330        2.11360
O          5.32210       -0.82410        4.19870
