21
TSA8_9_F_Me_OMe
C          2.08100        0.00370        0.29580
C          1.48390       -0.35530        1.45100
F          2.50750       -0.90110       -0.62020
H          2.21450        1.05390        0.05290
C          0.99850        0.70370        2.39990
C          3.19040       -2.41950        3.87350
C          3.35010       -2.51960        2.53950
C          2.15090       -2.71240        1.64990
O          1.27550       -1.65130        1.81590
O          4.21630       -2.23440        4.74830
H          2.18910       -2.48730        4.28870
H          4.33220       -2.46130        2.08220
H          1.63820       -3.64810        1.95370
H          2.45380       -2.83800        0.59380
H          1.52070        0.58070        3.37080
H         -0.09370        0.58940        2.56190
H          1.19700        1.73130        2.02490
C          5.54530       -2.08490        4.41870
H          6.13470       -1.94930        5.34820
H          5.68170       -1.18680        3.77770
H          5.91580       -2.99080        3.89190
