17
TSA8_9_Cl_Me_Cl
C          3.03460       -0.50750       -1.51810
C          1.53690       -0.69570       -1.58400
Cl         3.45510        0.27510        0.03650
H          3.49430       -1.52050       -1.51150
C          0.95800       -2.07260       -1.71970
C          3.66410        0.24280       -2.72340
C          3.26920        1.69720       -2.87220
C          2.06610        2.08850       -3.30130
O          0.78390        0.26010       -1.48130
Cl         5.44610        0.16690       -2.56280
H          3.42380       -0.29200       -3.66790
H          4.00740        2.46810       -2.66830
H          1.29910        1.37270       -3.57230
H          1.84900        3.14620       -3.40920
H          1.31160       -2.53280       -2.66610
H         -0.15220       -2.03380       -1.73340
H          1.28280       -2.70020       -0.86360
