15
TSA8_9_OH_Br_Cl
C          1.70230       -2.21130       -0.58580
C          1.13120       -1.37430        0.57840
O          1.47520       -1.57660       -1.82390
H          2.80340       -2.29020       -0.46140
Br         1.82070       -1.87740        2.33400
C          1.07750       -3.61530       -0.55350
C         -0.44640       -3.49760       -0.53850
C         -0.86410       -2.60190        0.63680
O         -0.28860       -1.30560        0.54560
Cl         1.62110       -4.60430       -1.93540
H          1.39240       -4.13260        0.37890
H         -0.81700       -3.06130       -1.49080
H         -0.61600       -3.08220        1.60790
H         -1.96870       -2.49790        0.61480
H          0.54220       -1.24190       -1.85190
