15
TSA8_9_I_Cl_OH
C          1.40590       -1.41730       -1.48840
C          2.77530       -0.91180       -1.00890
I          0.08920        0.27950       -1.68890
H          0.89850       -2.04180       -0.72160
Cl         3.86630       -2.23500       -0.50550
C          1.54980       -2.19940       -2.81190
C          2.75820       -1.70550       -3.63540
C          3.10200       -0.24990       -3.30290
O          3.43210       -0.03630       -1.92820
O          1.72750       -3.56450       -2.53240
H          0.59370       -2.07140       -3.36790
H          3.66280       -2.29390       -3.36560
H          2.27320        0.42140       -3.60610
H          3.98390        0.03000       -3.91600
H          1.55690       -4.05470       -3.37930
