20
TSA8_9_CH2F_H_CF3
C          2.25200        1.58220        1.08550
C          3.08370        0.38000        1.47420
C          0.88020        1.08800        0.59130
H          2.76080        2.08350        0.23240
H          4.00280        0.16670        0.93740
C          2.16560        2.58470        2.28260
C          3.56990        2.98130        2.69930
C          4.04900        2.71650        3.91880
O          2.73780       -0.35400        2.38700
C          1.37760        3.87830        1.97040
H          1.65440        2.07970        3.13400
H          4.20790        3.49570        1.98560
H          3.44550        2.20390        4.66150
H          5.05890        3.01470        4.18080
F          1.04570        0.17470       -0.43620
H          0.27670        1.92170        0.18600
H          0.31980        0.60020        1.41770
F          1.91310        4.52030        0.86700
F          0.04220        3.61050        1.73760
F          1.44150        4.73440        3.05700
