22
TSA8_9_CN_OH_Et
C          1.62180        0.06670       -0.00060
C          1.47710        1.35800        0.40910
C          1.78550       -1.12320        0.79730
H          1.53310       -0.13270       -1.06510
O          1.42710        2.27160       -0.57180
C          4.07520        0.47790        3.53700
C          3.35680        1.37400        2.85570
C          1.86260        1.24150        2.84380
O          1.37910        1.81820        1.69750
C          5.57180        0.40410        3.45650
H          3.56150       -0.28920        4.10550
H          3.85260        2.12340        2.23090
H          1.43500        1.72360        3.75000
H          1.55170        0.18620        2.87880
N          1.91790       -2.09100        1.41890
H          2.07200        2.99510       -0.55550
C          5.91460       -0.90220        2.74270
H          6.02880        0.42240        4.47190
H          5.98860        1.25080        2.86950
H          5.56810       -1.77420        3.33960
H          7.00620       -0.98770        2.57200
H          5.40150       -0.93050        1.75530
