22
TSA8_9_CN_OH_Et
C          2.88380        0.10250        1.08130
C          1.72010        1.11340        0.74570
C          2.20160       -1.20570        1.15260
H          3.57950        0.05530        0.21150
O          1.88000        1.81330       -0.46140
C          3.60730        0.34790        2.47750
C          3.11820        1.63940        3.08940
C          1.60310        1.61650        3.04750
O          1.13880        1.93130        1.75780
C          5.15340        0.31010        2.66500
H          3.24570       -0.43350        3.18380
H          3.51460        2.53490        2.55560
H          1.23630        2.37780        3.76080
H          1.19260        0.63270        3.37290
N          1.64390       -2.21710        1.23910
H          2.26430        2.69900       -0.23690
C          5.83350       -1.03360        2.42260
H          5.34310        0.52250        3.74760
H          5.66570        1.10830        2.08810
H          5.39760       -1.81620        3.08090
H          6.91280       -0.94150        2.69250
H          5.75400       -1.32960        1.36100
