24
TSA8_9_OMe_Br_Et
C          2.49670       -0.46770       -1.09690
C          2.78990       -1.12850        0.23080
O          1.12760       -0.08850       -1.11590
H          3.16370        0.42430       -1.14140
Br         4.11470       -0.39680        1.39950
C          2.80790       -1.36740       -2.33100
C          1.96670       -2.62950       -2.32310
C          1.06470       -2.89010       -3.27420
O          2.16580       -2.11330        0.59230
C          4.29860       -1.76650       -2.44550
H          2.55730       -0.77880       -3.24210
H          2.10070       -3.35950       -1.53150
H          0.48810       -3.80870       -3.23440
H          0.89230       -2.19890       -4.09270
C          0.97520        1.21510       -1.63770
H          1.45750        1.31910       -2.63570
H          1.36830        1.97160       -0.92260
H         -0.10570        1.41690       -1.78050
C          5.23260       -0.57390       -2.67110
H          4.41410       -2.43490       -3.32740
H          4.62300       -2.32830       -1.54320
H          4.92900       -0.01710       -3.58420
H          6.27030       -0.94090       -2.81280
H          5.23710        0.11570       -1.80440
