24
TSA8_9_OMe_Br_Et
C          2.50970       -0.60870       -1.19500
C          2.18710       -1.65050       -0.10950
O          1.34700        0.18230       -1.38820
H          3.36520       -0.00630       -0.81330
Br         1.88200       -0.77610        1.59510
C          2.87690       -1.34180       -2.52560
C          2.35230       -2.79360       -2.51210
C          0.99710       -2.85370       -1.79760
O          1.03900       -2.42630       -0.43620
C          4.39240       -1.37000       -2.83030
H          2.38540       -0.80470       -3.36740
H          3.04050       -3.45050       -1.93150
H          0.65050       -3.90780       -1.82110
H          0.26000       -2.23500       -2.35330
C          1.70020        1.52230       -1.65700
H          2.44060        1.59830       -2.48430
H          2.07370        2.01910       -0.73530
H          0.79260        2.06540       -1.99060
C          4.98280        0.01830       -3.09450
H          4.55420       -1.96800       -3.75450
H          4.94290       -1.85880       -1.99720
H          4.45600        0.50300       -3.94380
H          6.05610       -0.08420       -3.35950
H          4.91660        0.67600       -2.20590
