17
TSA8_9_I_F_CBr3
C          2.45130       -2.07500       -0.44360
C          1.51870       -2.77580        0.50170
I          1.41180       -0.31270       -1.12530
H          3.33800       -1.72300        0.12530
F          1.86520       -2.92790        1.80650
C          2.92100       -2.96460       -1.63670
C          3.76440       -2.10660       -2.56340
C          3.40770       -1.86510       -3.82970
O          0.44330       -3.20250        0.11050
C          3.74650       -4.23080       -1.23050
H          2.01730       -3.31370       -2.18530
H          4.68730       -1.67090       -2.19160
H          2.49390       -2.27820       -4.24540
H          4.03650       -1.24610       -4.46100
Br         4.33200       -5.19210       -2.81930
Br         5.33680       -3.78520       -0.19900
Br         2.72930       -5.53970       -0.21480
