28
TSA8_9_Et_Et_NO2
C          2.52990       -1.14300        0.29690
C          1.23190       -1.10820        1.09790
C          2.19300       -0.89820       -1.19840
H          3.14340       -0.27580        0.62910
C          1.01120       -0.10340        2.19710
C          3.33190       -2.44690        0.65450
C          2.49500       -3.71090        0.59090
C          2.26160       -4.45050        1.68190
O          0.33090       -1.89060        0.82890
N          4.52850       -2.63100       -0.14600
H          3.64940       -2.29980        1.71300
H          2.07190       -4.02470       -0.35790
H          2.66610       -4.16950        2.65040
H          1.65780       -5.34880        1.61380
C          3.34270       -0.28290       -2.01170
H          1.39490       -0.12320       -1.25130
H          1.79500       -1.82170       -1.66980
H          3.64910        0.68390       -1.55740
H          2.99160       -0.07990       -3.04540
H          4.23930       -0.91390       -2.08720
C          1.97280       -0.33750        3.35830
H         -0.02600       -0.20200        2.58690
H          1.13620        0.92370        1.79370
H          1.83180       -1.36180        3.76690
H          1.76650        0.39710        4.16450
H          3.02680       -0.21750        3.03320
O          4.44920       -3.05420       -1.26060
O          5.71100       -2.55580        0.42480
