28
TSA8_9_Et_Et_NO2
C          1.60470       -0.01490        0.16260
C          1.26270       -0.83870        1.17490
C          1.99980       -0.50920       -1.20900
H          1.59890        1.06090        0.31630
C          0.82770       -0.25200        2.51120
C          4.27590       -3.62970        0.37550
C          2.93550       -3.73990        0.44470
C          2.14930       -3.06980        1.53540
O          1.26700       -2.18040        0.95740
N          5.03790       -4.23980       -0.65990
H          4.80390       -3.04930        1.12730
H          2.39160       -4.31050       -0.30180
H          2.84900       -2.55320        2.22420
H          1.58240       -3.83330        2.10710
C          3.43030       -0.10040       -1.53490
H          1.30760       -0.06800       -1.95710
H          1.92810       -1.61360       -1.29240
H          3.53580        1.00480       -1.50440
H          3.69430       -0.45650       -2.55330
H          4.13280       -0.55790       -0.80550
C          1.68860       -0.67420        3.69740
H         -0.22250       -0.55470        2.70810
H          0.85250        0.85920        2.46620
H          1.60100       -1.76330        3.88430
H          1.33050       -0.15670        4.61230
H          2.74980       -0.39530        3.52460
O          4.51080       -4.88090       -1.51780
O          6.34330       -4.08620       -0.67780
