28
TSA8_9_Et_Et_NO2
C          2.62270       -1.20130        0.20100
C          1.34720       -1.24730        1.08290
C          2.16110       -1.05010       -1.27270
H          3.16880       -0.26500        0.45070
C          1.24210       -0.35710        2.33520
C          3.50700       -2.44120        0.54450
C          2.66190       -3.72140        0.55080
C          1.48700       -3.54530        1.50930
O          0.64350       -2.48020        1.11180
N          4.66640       -2.61470       -0.31130
H          3.86640       -2.29090        1.58600
H          2.27750       -3.95530       -0.46590
H          1.84740       -3.42030        2.54740
H          0.89360       -4.48280        1.50120
C          3.20310       -0.39140       -2.18840
H          1.30850       -0.33380       -1.29300
H          1.79200       -2.01250       -1.68370
H          3.47320        0.61040       -1.78980
H          2.76500       -0.25130       -3.19880
H          4.13330       -0.96490       -2.30630
C          2.10310       -0.77560        3.52100
H          0.17900       -0.31980        2.65500
H          1.53750        0.67250        2.03990
H          1.78380       -1.75460        3.92370
H          1.97670       -0.03040        4.33490
H          3.17470       -0.80190        3.23900
O          4.54400       -3.05010       -1.41610
O          5.87260       -2.50720        0.20250
