20
TSA8_9_CBr3_Cl_CHF2
C          1.79460       -0.04540        0.05570
C          1.03820        0.68840        0.89490
C          2.24560       -1.48440        0.21990
H          2.12010        0.43660       -0.86270
Cl         0.65260        2.34600        0.41350
C         -0.33210        0.50800        5.34710
C         -0.55560        0.01170        4.12020
C         -0.32360        0.83390        2.88570
O          0.58010        0.18770        2.06930
C         -0.56650       -0.31380        6.57910
H          0.02050        1.52810        5.46840
H         -0.91690       -1.00670        4.00500
H          0.06020        1.84330        3.15350
H         -1.28860        0.94780        2.34770
Br         1.57890       -2.48920       -1.29520
Br         4.17940       -1.52450        0.16430
Br         1.68910       -2.43270        1.82670
F         -1.88830       -0.71650        6.63780
F          0.25500       -1.42650        6.56700
H         -0.33490        0.29390        7.47910
