30
TSA8_9_Et_Et_OMe
C          1.86030        0.09560       -0.18840
C          1.44950        1.21830       -0.81830
C          1.89080       -0.08070        1.30870
H          2.17050       -0.76100       -0.78130
C          1.39730        1.26290       -2.32730
C          4.12780        3.82640       -0.49650
C          2.79280        3.90210       -0.52560
C          1.93270        3.19830        0.49010
O          1.05680        2.32390       -0.13060
O          4.85730        4.48390       -1.42960
H          4.62310        3.24160        0.27500
H          2.30650        4.48950       -1.29940
H          1.33960        3.96700        1.02770
H          2.55460        2.66690        1.23970
C          3.31280       -0.35650        1.78210
H          1.24300       -0.94290        1.57380
H          1.49180        0.80310        1.84500
H          3.71050       -1.27310        1.29580
H          3.31630       -0.50790        2.88200
H          3.97310        0.50260        1.53690
C         -0.03110        1.49470       -2.81010
H          1.76550        0.31310       -2.77410
H          2.04800        2.08610       -2.68960
H         -0.68740        0.66380       -2.47510
H         -0.04810        1.53340       -3.91960
H         -0.42690        2.45450       -2.41500
C          6.23630        4.47220       -1.46480
H          6.57370        4.05550       -2.43590
H          6.67300        3.86260       -0.64340
H          6.61170        5.51280       -1.37210
