30
TSA8_9_Et_Et_OMe
C          2.85290        1.17440       -0.23930
C          1.46010        1.46900       -0.84260
C          2.65210        0.51630        1.15480
H          3.36020        0.38770       -0.84260
C          1.45200        1.67050       -2.36840
C          3.72170        2.47040       -0.23630
C          2.85150        3.74710       -0.18940
C          1.50380        3.49100        0.48130
O          0.71790        2.48210       -0.15500
O          4.50590        2.49280       -1.41920
H          4.37220        2.42900        0.66160
H          2.62710        4.10270       -1.21580
H          0.93420        4.44330        0.44430
H          1.64520        3.25490        1.55310
C          3.94210       -0.05280        1.75490
H          1.96020       -0.34590        1.02840
H          2.19070        1.20300        1.88670
H          4.39580       -0.79140        1.06030
H          3.70350       -0.57080        2.70800
H          4.68430        0.73660        1.98130
C          0.02530        1.73870       -2.90440
H          1.96060        0.80510       -2.84540
H          1.99260        2.58930       -2.66550
H         -0.52470        0.80760       -2.64880
H          0.04750        1.84790       -4.00910
H         -0.51110        2.61130       -2.47460
C          5.63900        3.32010       -1.25360
H          6.24380        3.27200       -2.18190
H          6.29180        2.96170       -0.42700
H          5.34450        4.38240       -1.10930
