22
TSA8_9_OMe_CN_CF3
C          2.25130       -0.38290       -1.40430
C          1.85060       -1.76500       -0.93440
O          1.18800        0.47280       -0.99080
H          3.22250       -0.13220       -0.91010
C          1.93750       -2.08120        0.46960
C          2.42250       -0.35380       -2.97480
C          1.45660        0.62130       -3.60190
C          0.23400        0.20960       -3.95560
O          1.06030       -2.41660       -1.59600
C          3.86050       -0.14550       -3.49950
H          2.16180       -1.34840       -3.39700
H          1.72800        1.66700       -3.71450
H         -0.06160       -0.82760       -3.81030
H         -0.48420        0.90350       -4.37150
C          1.65770        1.66310       -0.40030
H          2.33300        2.22420       -1.08170
H          2.12810        1.45920        0.58540
H          0.77780        2.31610       -0.21140
N          2.00670       -2.34350        1.59390
F          4.41710        1.01480       -2.99410
F          4.65670       -1.22120       -3.14740
F          3.84110       -0.06120       -4.88440
