22
TSA8_9_OMe_CN_CF3
C          2.52160       -0.16790       -1.55470
C          1.19860       -0.88830       -1.08880
O          2.39200        1.25500       -1.57350
H          3.37890       -0.43940       -0.89570
C          1.47790       -1.92680       -0.08610
C          2.79050       -0.63180       -3.01080
C          1.59590       -0.17510       -3.86430
C          0.26430       -0.52280       -3.17890
O          0.45330       -1.47190       -2.15100
C          4.15010       -0.21320       -3.63320
H          2.77290       -1.74520       -3.04130
H          1.61340        0.91680       -4.08090
H         -0.40860       -0.94930       -3.95060
H         -0.23900        0.38370       -2.77370
C          1.70900        1.76380       -0.44380
H          1.82200        2.86780       -0.42980
H          2.12760        1.37540        0.50980
H          0.61650        1.56850       -0.52300
N          1.69190       -2.74330        0.70190
F          4.69710        0.88450       -2.99580
F          5.04290       -1.26770       -3.53400
F          4.00780        0.08510       -4.98000
