26
TSA8_9_Me_Et_CCl3
C          1.86350       -0.00500       -0.16060
C          1.51150        0.65400       -1.28570
C          1.87200        0.61050        1.21100
H          2.14860       -1.05150       -0.22150
C          1.49090       -0.06880       -2.61310
C          2.34050        3.32240       -3.61890
C          2.90910        3.08800       -2.42330
C          2.07460        3.00200       -1.17530
O          1.15810        1.96660       -1.25440
C          3.09200        3.42870       -4.92660
H          1.26150        3.44820       -3.66290
H          3.98080        2.96180       -2.32160
H          1.52730        3.95970       -1.04580
H          2.74030        2.86440       -0.29720
H          1.52280        1.66160        1.21810
H          2.90050        0.56790        1.62580
H          1.19520        0.02880        1.87060
C          0.09210       -0.04950       -3.21990
H          1.80980       -1.12840       -2.50120
H          2.19890        0.42630       -3.30960
H         -0.62490       -0.56410       -2.54580
H          0.10300       -0.57830       -4.19630
H         -0.24610        0.99530       -3.38650
Cl         2.45720        2.20070       -6.04660
Cl         2.79620        5.03930       -5.62290
Cl         4.86130        3.19740       -4.79440
