26
TSA8_9_Me_Et_CCl3
C          2.47060        1.11690       -1.96560
C          0.90630        1.06470       -1.81970
C          3.12790        0.92510       -0.58890
H          2.80650        0.24510       -2.56910
C          0.29420        0.08180       -2.83110
C          2.85040        2.43440       -2.70060
C          2.29070        3.65290       -1.93150
C          0.95470        3.32160       -1.25100
O          0.27030        2.33440       -1.98430
C          4.33560        2.63050       -3.11880
H          2.27990        2.38110       -3.65590
H          2.97270        4.06090       -1.15590
H          0.34170        4.24360       -1.18200
H          1.09410        2.98210       -0.20050
H          2.91430        1.75710        0.10880
H          4.22430        0.81730       -0.68840
H          2.75920       -0.01760       -0.13110
C         -1.21130       -0.06720       -2.63200
H          0.75930       -0.91860       -2.69750
H          0.49570        0.43500       -3.86570
H         -1.42790       -0.43930       -1.60810
H         -1.61130       -0.79480       -3.36930
H         -1.72700        0.90460       -2.78500
Cl         4.92140        1.22960       -4.05710
Cl         4.46870        4.06100       -4.17990
Cl         5.44730        2.89740       -1.74530
