17
TSA8_9_Br_Br_CCl3
C          1.85330        0.07500       -0.23810
C          1.43270        1.04190       -1.06390
Br         2.20270        0.38950        1.61970
H          1.98910       -0.93350       -0.61440
Br         1.05980        0.61910       -2.89250
C          2.11970        4.14740       -2.77970
C          2.86300        3.58730       -1.81230
C          2.26380        3.22770       -0.47980
O          1.23860        2.31120       -0.62660
C          2.69850        4.51800       -4.12040
H          1.06600        4.33890       -2.59020
H          3.91850        3.39000       -1.98010
H          1.85710        4.14910       -0.01290
H          3.05050        2.82020        0.18860
Cl         1.43230        5.23310       -5.14950
Cl         4.00650        5.71380       -3.92420
Cl         3.34160        3.07240       -4.94280
