16
TSA8_9_Cl_F_NO2
C          2.11020        0.91450       -1.70460
C          0.98800        0.22210       -2.42890
Cl         1.63760        1.12900        0.00800
H          3.00920        0.26040       -1.73300
F          1.19830       -0.99220       -3.00020
C          2.44390        2.27440       -2.35970
C          3.57780        2.95570       -1.62600
C          3.42800        4.14740       -1.03920
O         -0.11450        0.74170       -2.50820
N          2.81740        2.09190       -3.75140
H          1.53260        2.91470       -2.31280
H          4.54440        2.46240       -1.57300
H          2.47900        4.67410       -1.06800
H          4.26430        4.60540       -0.52130
O          3.76710        1.42910       -4.04480
O          2.10540        2.65830       -4.70180
