16
TSA8_9_Cl_F_NO2
C          1.89790        0.04350       -0.25440
C          1.38880        0.71240       -1.30130
Cl         2.35670        0.80800        1.26270
H          2.00240       -1.03490       -0.31970
F          1.00440        0.00880       -2.39780
C          2.51760        3.14810       -3.70450
C          3.06410        2.93270       -2.49510
C          2.22700        2.99280       -1.24660
O          1.20610        2.05900       -1.30060
N          3.28120        3.09960       -4.90470
H          1.45470        3.36780       -3.77340
H          4.12350        2.71390       -2.39940
H          1.78090        4.00630       -1.16750
H          2.86980        2.83630       -0.35920
O          4.45160        2.86210       -4.88310
O          2.68790        3.32190       -6.05720
