20
TSA8_9_CF3_Br_CHF2
C          1.82040       -0.04100       -0.04140
C          1.04990       -1.08530        0.31010
C          2.30930        0.25440       -1.43820
H          2.11710        0.66090        0.73250
Br         0.53510       -1.23940        2.15940
C         -0.18090       -5.17240       -1.57500
C         -0.42630       -3.85300       -1.58110
C         -0.25130       -3.01250       -0.34920
O          0.64600       -1.99950       -0.61020
C         -0.35950       -6.00750       -2.80720
H          0.15210       -5.66190       -0.66390
H         -0.76620       -3.36980       -2.49350
H          0.11290       -3.63230        0.49990
H         -1.23460       -2.57200       -0.07740
F          3.69050        0.27930       -1.43490
F          1.88510       -0.67820       -2.36780
F          1.84130        1.49850       -1.81840
F         -1.66920       -5.93490       -3.24370
F          0.48640       -5.56200       -3.80740
H         -0.11530       -7.06600       -2.57590
