17
TSA8_9_H_Br_CH2F
C          2.33820       -0.74390        0.36180
C          1.30060       -1.58820        0.25610
H          3.06110       -0.61470       -0.43520
H          2.47140       -0.15620        1.26450
Br         0.07960       -1.72880        1.72050
C          2.97860       -4.58360       -0.90860
C          3.12940       -3.36470       -1.44600
C          1.93340       -2.57310       -1.90350
O          1.06560       -2.35370       -0.84730
C          4.15500       -5.38260       -0.43820
H          1.98430       -5.00960       -0.80230
H          4.12050       -2.93380       -1.55520
H          1.40410       -3.15600       -2.68690
H          2.24590       -1.60700       -2.35630
F          5.01330       -5.62910       -1.49410
H          3.80390       -6.35160       -0.02390
H          4.69490       -4.82790        0.35790
