17
TSA8_9_H_Br_CH2F
C          2.85880       -2.22950        0.15040
C          1.47130       -1.56520       -0.07410
H          3.63720       -1.67470       -0.41810
H          3.13500       -2.18290        1.22590
Br         0.30080       -1.99040        1.41550
C          2.79270       -3.66510       -0.37980
C          2.46570       -3.63520       -1.88970
C          1.70610       -2.35160       -2.27790
O          0.79700       -1.97810       -1.26590
C          4.06990       -4.46220       -0.09290
H          1.95290       -4.17220        0.14290
H          3.36940       -3.67260       -2.53680
H          1.16730       -2.52100       -3.23260
H          2.41430       -1.51190       -2.46480
F          5.16640       -3.87440       -0.70090
H          3.95940       -5.50110       -0.46940
H          4.24810       -4.50530        1.00240
