20
TSA8_9_CN_CF3_NO2
C          2.66720       -1.19950       -1.37280
C          1.74700       -2.11380       -0.53510
C          2.39540        0.23840       -1.09350
H          3.69710       -1.41980       -1.01380
C          1.66910       -2.09710        0.96800
C          2.55740       -1.52600       -2.90140
C          1.41510       -0.76700       -3.55390
C          0.13330       -1.10360       -3.39910
O          1.09130       -2.98340       -1.08950
N          3.79400       -1.26010       -3.61620
H          2.39230       -2.61840       -3.03060
H          1.64550        0.11720       -4.14260
H         -0.16170       -1.97530       -2.83490
H         -0.64130       -0.49910       -3.85710
N          2.17140        1.36680       -0.94130
F          0.34210       -2.00450        1.35280
F          2.17930       -3.29610        1.43820
F          2.38250       -1.05570        1.52360
O          4.22250       -0.15270       -3.72360
O          4.40980       -2.25620       -4.22250
