20
TSA8_9_CN_CF3_NO2
C          1.66010       -0.06400        0.00700
C          1.52670       -1.40990       -0.21550
C          1.81570        0.98690       -0.96780
H          1.56960        0.30670        1.02450
C          1.46980       -2.32550        0.96850
C          2.66120       -2.20580       -4.10400
C          1.97430       -1.19710       -3.53960
C          0.85400       -1.45150       -2.58450
O          1.37770       -2.01540       -1.43590
N          3.71460       -1.97610       -5.03480
H          2.39440       -3.23210       -3.86460
H          2.21590       -0.16890       -3.77590
H          0.08690       -2.09800       -3.08020
H          0.30790       -0.52370       -2.33600
N          1.93980        1.85560       -1.72190
F          0.14510       -2.61880        1.15110
F          2.17180       -3.50290        0.74220
F          1.97830       -1.73050        2.11270
O          4.04780       -0.86730       -5.32920
O          4.31970       -3.00140       -5.59320
