14
TSA8_9_Cl_Cl_I
C          2.34570       -0.53030       -1.86150
C          1.02620        0.23150       -1.53610
Cl         3.70000        0.10570       -0.87390
H          2.24540       -1.59930       -1.57450
Cl        -0.35350       -0.89100       -1.68620
C          2.62150       -0.39120       -3.36160
C          2.74840        1.09040       -3.75090
C          1.92480        1.99160       -2.81270
O          0.74570        1.34130       -2.39430
I          4.31600       -1.52040       -4.03280
H          1.73670       -0.80470       -3.89280
H          3.79660        1.45840       -3.72040
H          1.67480        2.93350       -3.34270
H          2.51320        2.29880       -1.92010
