19
TSA8_9_OH_CCl3_CN
C          1.96910       -1.78330        0.17760
C          2.62350       -1.11030        1.38610
O          2.77160       -1.60350       -0.95640
H          0.99290       -1.27900        0.01520
C          2.05960        0.14370        2.05860
C          1.67010       -3.29900        0.40260
C          1.08680       -3.51750        1.77360
C         -0.15860       -3.14150        2.05260
O          3.60520       -1.63840        1.88660
C          2.83210       -4.18990        0.24240
H          0.95770       -3.64920       -0.36690
H          1.70220       -3.95610        2.55950
H         -0.54840       -3.27350        3.05290
H         -0.78300       -2.71170        1.27570
H          2.19720       -1.79630       -1.74350
Cl         3.39270        1.25080        2.48870
Cl         0.92850        1.08370        1.04020
Cl         1.21290       -0.29390        3.56460
N          3.70550       -4.94320        0.13080
