19
TSA8_9_OH_CCl3_CN
C          2.13950       -1.88500        0.43070
C          1.29400       -1.16570        1.56020
O          1.82840       -1.29540       -0.81190
H          3.21850       -1.73950        0.64920
C          1.74520        0.26830        1.97240
C          1.86150       -3.44420        0.39940
C          1.57260       -4.02180        1.77620
C          0.54580       -3.13080        2.42790
O          1.22160       -1.94220        2.73090
C          2.96410       -4.23010       -0.16700
H          0.93310       -3.63010       -0.19400
H          2.48280       -4.03080        2.42760
H          0.16830       -3.58190        3.36300
H         -0.34500       -2.97940        1.76260
H          2.09540       -1.91820       -1.54000
Cl         3.51580        0.41010        2.17850
Cl         1.19290        1.49070        0.80840
Cl         1.02460        0.70770        3.55590
N          3.81490       -4.88440       -0.60550
