28
TSA8_9_OMe_OMe_Et
C          2.83720        0.19610       -1.05650
C          1.43870       -0.47170       -1.27790
O          2.67130        1.54090       -0.64160
H          3.44140       -0.37820       -0.31560
O          1.25520       -1.69140       -0.58100
C          3.57960        0.17210       -2.41250
C          2.74580        0.89100       -3.49730
C          1.23730        0.71220       -3.24770
O          0.98320       -0.53000       -2.62910
C          5.05940        0.62720       -2.37460
H          3.61390       -0.89480       -2.72290
H          2.93430        1.98040       -3.58120
H          0.69100        0.78330       -4.21120
H          0.84270        1.53920       -2.61170
C          2.18540        1.59810        0.68310
H          2.29110        2.64080        1.04650
H          2.77470        0.96180        1.38060
H          1.10490        1.34190        0.71670
C          1.90290       -2.75480       -1.24270
H          1.74760       -3.67720       -0.64670
H          3.00070       -2.60060       -1.29830
H          1.45790       -2.94470       -2.24400
C          5.30570        2.08140       -1.96000
H          5.49450        0.47850       -3.38720
H          5.61480       -0.02880       -1.66950
H          4.80440        2.79110       -2.64770
H          6.39710        2.28670       -1.99620
H          4.97120        2.26540       -0.92050
