19
TSA8_9_NO2_Cl_CH2F
C          1.56120       -2.31410       -1.12800
C          1.37500       -1.71170        0.24680
N          1.59070       -1.24540       -2.12260
H          2.55470       -2.81600       -1.14270
Cl         2.62160       -1.90150        1.46990
C          0.49970       -3.43320       -1.38400
C         -0.92800       -2.91830       -1.37180
C         -1.81680       -3.32880       -0.46090
O          0.36910       -1.07470        0.51780
C          0.77380       -4.20460       -2.68610
H          0.62520       -4.17310       -0.55980
H         -1.25520       -2.20220       -2.11710
H         -1.54610       -4.04600        0.30780
H         -2.83080       -2.94300       -0.48070
O          2.42420       -0.39390       -2.03940
O          0.73380       -1.19540       -3.11930
F         -0.10830       -5.26520       -2.80200
H          1.80660       -4.61310       -2.67180
H          0.66630       -3.56400       -3.58320
