19
TSA8_9_NO2_Cl_CH2F
C          1.57000       -2.42540       -1.16000
C          1.18260       -1.85220        0.21750
N          1.65630       -1.31970       -2.11160
H          2.57990       -2.88790       -1.09410
Cl         1.51990       -2.94820        1.59740
C          0.54170       -3.53650       -1.52040
C         -0.88570       -2.98140       -1.42390
C         -1.08670       -2.36560       -0.03300
O         -0.14250       -1.33770        0.23000
C          0.81120       -4.23420       -2.86230
H          0.63080       -4.33130       -0.74580
H         -1.08180       -2.21550       -2.20080
H         -1.05300       -3.15060        0.75380
H         -2.10630       -1.93000        0.00990
O          2.44770       -0.44680       -1.91560
O          0.89790       -1.25390       -3.18340
F         -0.09010       -5.26900       -3.04090
H          1.83680       -4.66040       -2.85930
H          0.72130       -3.54970       -3.72600
