14
TSA8_9_Cl_I_F
C          1.55650       -0.52010        2.04780
C          0.88740        0.64060        1.29690
Cl         1.11560       -2.06130        1.25090
H          2.66130       -0.42660        1.98740
I          1.70980        2.58630        1.72510
C          1.10000       -0.50080        3.51230
C         -0.42770       -0.49220        3.57480
C         -0.95270        0.68310        2.74020
O         -0.52990        0.59500        1.38730
F          1.60430       -1.59220        4.19730
H          1.47640        0.42350        4.00200
H         -0.83780       -1.44300        3.17090
H         -0.65530        1.65400        3.19150
H         -2.06180        0.65510        2.76410
