20
TSA8_9_NH2_OMe_Br
C          3.08810       -1.11500        1.04660
C          2.13910       -0.52140        2.06770
N          2.41560       -1.30530       -0.24120
H          3.91840       -0.39190        0.88070
O          2.42510        0.68570        2.61480
C          3.75300       -2.42160        1.56130
C          2.79530       -3.53950        1.91750
C          2.07280       -4.20090        1.00940
O          1.13580       -1.13720        2.40240
Br         4.82050       -1.99990        3.13770
H          4.46970       -2.79680        0.79900
H          2.70790       -3.84620        2.95660
H          1.41200       -5.00210        1.32530
H          2.13940       -3.97200       -0.04780
H          1.51340       -1.81640       -0.11640
H          2.18160       -0.36870       -0.64310
C          1.68290        1.25830        3.62630
H          2.12100        2.24330        3.88740
H          1.70610        0.60790        4.52730
H          0.63250        1.40650        3.29760
