20
TSA8_9_NH2_OMe_Br
C          3.27500       -1.03770        1.05270
C          2.06340       -0.88200        1.99290
N          2.88050       -0.81860       -0.34520
H          4.05440       -0.28050        1.28820
O          1.58860        0.43770        1.98230
C          3.87320       -2.45640        1.24030
C          2.87710       -3.41590        1.91910
C          1.44560       -3.12450        1.44510
O          1.00850       -1.77970        1.66360
Br         5.47200       -2.39560        2.34990
H          4.19690       -2.85120        0.25280
H          2.87440       -3.23240        3.01720
H          0.76340       -3.80770        1.99280
H          1.36430       -3.36650        0.36530
H          2.14860       -1.49470       -0.65630
H          2.51290        0.15330       -0.46470
C          1.63250        0.89480        3.31060
H          1.35940        1.96970        3.32150
H          2.65880        0.81970        3.73970
H          0.89010        0.35490        3.94060
