18
TSA8_9_Me_Br_CN
C          1.62950        0.02890        0.08240
C          1.41950        0.36740        1.38990
C          1.73210       -1.26570       -0.67800
H          1.68820        0.86350       -0.60630
Br         1.64450        2.23250        1.74720
C          2.45980       -3.63120        3.41690
C          2.29770       -2.32740        3.16110
C          0.99860       -1.77220        2.64230
O          1.13220       -0.40770        2.48630
C          3.74350       -4.10920        3.86470
H          1.65220       -4.33720        3.27000
H          3.13850       -1.65300        3.32620
H          0.20970       -2.00020        3.39500
H          0.66290       -2.24290        1.71110
H          1.59030       -2.20030       -0.12650
H          2.78370       -1.20880       -0.99790
H          1.14270       -1.30750       -1.63500
N          4.79170       -4.43560        4.23030
