18
TSA8_9_Me_Br_CN
C          2.38670       -1.23980        1.11030
C          1.14690       -0.33320        1.42680
C          2.18060       -1.72780       -0.34190
H          3.29490       -0.59970        1.18740
Br         1.67620        1.52310        1.11670
C          2.54880       -2.46530        2.07240
C          1.95790       -2.18650        3.44120
C          0.54800       -1.68390        3.20910
O          0.64490       -0.36420        2.74600
C          3.93990       -2.91030        2.25250
H          1.96330       -3.32410        1.69000
H          2.52860       -1.40930        4.00370
H         -0.00320       -1.68070        4.16760
H         -0.02820       -2.34080        2.50880
H          1.40220       -2.52740       -0.36520
H          3.10920       -2.12850       -0.79110
H          1.79220       -0.91290       -0.99290
N          5.01900       -3.29540        2.42740
