20
TSA8_9_Br_Me_CHF2
C          2.70840        2.36470        0.76300
C          1.34040        1.60630        0.79100
Br         4.17510        1.08560        0.92970
H          2.86020        2.83870       -0.23150
C          0.35340        2.23750       -0.19150
C          2.69600        3.42530        1.88130
C          2.48340        2.74740        3.24950
C          1.65040        1.46040        3.11500
O          0.70700        1.58200        2.07460
C          3.91030        4.36760        1.89080
H          1.80310        4.06150        1.69220
H          3.42960        2.47330        3.76490
H          1.13630        1.25800        4.07700
H          2.29520        0.57320        2.92960
H          0.13300        3.28790        0.09390
H         -0.59440        1.65940       -0.18980
H          0.76990        2.21760       -1.22070
F          5.08400        3.68230        2.14880
F          4.02070        5.01360        0.67230
H          3.77290        5.13520        2.68170
