18
TSA8_9_I_CN_CHF2
C          2.89760        1.70250       -1.02710
C          1.81940        1.00000       -1.83150
I          3.08380        0.75200        0.90880
H          3.83950        1.51180       -1.58150
C          1.97450       -0.39410       -2.16970
C          2.67330        3.24500       -0.94890
C          1.65140        3.60720        0.11190
C          0.40500        3.98820       -0.17450
O          0.88680        1.61650       -2.32040
C          3.98230        4.01580       -0.70000
H          2.32910        3.58400       -1.95190
H          1.93850        3.54450        1.15860
H          0.05180        4.04020       -1.19760
H         -0.28010        4.22640        0.63420
N          2.10400       -1.50800       -2.45020
F          4.54150        3.68460        0.52080
F          4.89460        3.73810       -1.70470
H          3.78100        5.10830       -0.71860
