18
TSA8_9_I_CN_CHF2
C          1.71550        0.03700       -0.06530
C          1.52470        0.54130       -1.31630
I          1.92840        0.87740        1.83960
H          1.58610       -1.05340        0.06130
C          1.53880       -0.39030       -2.38790
C          2.88930        4.71210       -1.16630
C          2.57590        3.47850       -0.74250
C          1.18020        2.94310       -0.88900
O          1.22280        1.82380       -1.67320
C          4.25010        5.31670       -0.96120
H          2.13620        5.32230       -1.65320
H          3.33850        2.86450       -0.26720
H          0.51470        3.70700       -1.35180
H          0.73050        2.71540        0.09080
N          1.54570       -1.12870       -3.27230
F          4.52550        5.40390        0.39220
F          5.22640        4.56210       -1.58360
H          4.26320        6.34390       -1.38670
