18
TSA8_9_I_CN_CHF2
C          2.84170        1.75730       -0.78130
C          1.44710        1.22090       -1.24060
I          2.97810        1.36940        1.33340
H          3.67010        1.17520       -1.24400
C          1.56660        0.21240       -2.30420
C          2.93050        3.25500       -1.16860
C          1.76420        4.00020       -0.51160
C          0.44700        3.23600       -0.70200
O          0.57390        2.24580       -1.70070
C          4.24680        4.00910       -0.92150
H          2.78450        3.28880       -2.27100
H          1.92660        4.15800        0.57980
H         -0.31790        3.97690       -1.01030
H          0.09170        2.77830        0.24920
N          1.64840       -0.58020       -3.13940
F          4.54770        4.11860        0.42320
F          5.29600        3.40390       -1.58780
H          4.12700        5.03710       -1.33580
