19
TSA8_9_H_CCl3_NO2
C          2.94750        2.01100       -1.07390
C          1.50450        1.55290       -1.06980
H          3.59780        1.18370       -0.71480
H          3.24660        2.24660       -2.11820
C          0.71080        1.49110       -2.35710
C          3.17190        3.27450       -0.21720
C          2.93010        2.99440        1.24990
C          1.99570        3.63930        1.95450
O          0.98560        1.21670       -0.01500
N          4.53070        3.75310       -0.39160
H          2.47150        4.06260       -0.57860
H          3.53810        2.24490        1.74880
H          1.36650        4.39570        1.49650
H          1.85700        3.40830        3.00580
Cl         0.63800        3.10600       -3.10840
Cl         1.48840        0.35710       -3.49150
Cl        -0.96470        0.93440       -2.08100
O          5.46140        3.06740       -0.08960
O          4.74480        4.95110       -0.89300
