19
TSA8_9_H_CCl3_NO2
C          2.17810        0.33010       -0.31260
C          1.50660        1.40650       -0.77750
H          2.52950        0.26920        0.70900
H          2.39240       -0.53320       -0.92970
C          0.99730        1.49270       -2.20670
C          3.27400        4.56980       -0.13430
C          3.26470        3.50540        0.69090
C          1.96030        2.90310        1.12960
O          1.24310        2.48130        0.02310
N          4.47500        5.18330       -0.58350
H          2.32700        4.98200       -0.47310
H          4.19480        3.07250        1.04980
H          1.37790        3.69120        1.65140
H          2.11400        2.07860        1.85500
Cl         1.80070        2.86690       -3.00590
Cl         1.28630        0.04020       -3.21350
Cl        -0.75540        1.80460       -2.19640
O          5.54320        4.77100       -0.24400
O          4.40900        6.22310       -1.38750
