19
TSA8_9_H_CCl3_NO2
C          3.02970        2.03870       -0.84600
C          1.50780        1.71220       -0.67350
H          3.60600        1.43000       -0.11530
H          3.39760        1.77720       -1.86040
C          0.74710        1.55150       -2.00560
C          3.26720        3.52070       -0.52370
C          2.80320        3.81970        0.91730
C          1.61120        2.92780        1.30410
O          0.82770        2.65020        0.16390
N          4.64990        3.90290       -0.71950
H          2.62810        4.11610       -1.21080
H          3.59370        3.65560        1.68260
H          1.00290        3.43240        2.08250
H          1.96490        1.97260        1.76070
Cl         0.81230        3.02970       -3.00310
Cl         1.41720        0.18910       -2.94230
Cl        -0.96460        1.17590       -1.67730
O          5.51990        3.38150       -0.08950
O          4.95780        4.82550       -1.60690
