18
TSA8_9_F_Me_CN
C          1.88840       -0.50460       -1.79090
C          1.90960       -1.70460       -0.83780
F          1.91360        0.87980       -1.74580
H          1.29430       -0.12780       -0.93540
C          3.06470       -2.62440       -0.90300
C          1.15460       -0.99170       -3.05530
C         -0.28790       -0.70120       -2.89130
C         -1.12410       -1.68000       -2.53410
O          0.87110       -2.14490       -0.33490
C          1.70400       -0.49650       -4.32740
H          1.33160       -2.09350       -3.16420
H         -0.63070        0.32150       -2.97170
H         -0.75770       -2.69360       -2.39050
H         -2.15730       -1.44670       -2.33910
H          3.93040       -2.10200       -1.35060
H          2.78080       -3.48090       -1.55470
H          3.29780       -2.99020        0.11630
N          2.07340       -0.09460       -5.35350
