18
TSA8_9_F_Me_CN
C          1.86970       -0.09690       -0.04270
C          1.68250       -1.13900       -0.93730
F          1.38160        1.16710       -0.34700
H          1.43850       -0.26770        0.96380
C          2.73480       -2.22780       -1.01910
C          0.64480       -1.52990       -4.41700
C          0.28580       -0.98100       -3.25660
C         -0.31610       -1.79630       -2.12970
O          0.48830       -1.78560       -1.00260
C          1.38880       -0.75310       -5.37110
H          0.43850       -2.57180       -4.64570
H          0.50860        0.06960       -3.07980
H         -0.47720       -2.84580       -2.45180
H         -1.27330       -1.36160       -1.81560
H          3.74410       -1.97720       -1.40060
H          2.41310       -3.00650       -1.75340
H          2.81970       -2.69940       -0.02410
N          1.98740       -0.15290       -6.15790
