17
TSA8_9_I_F_CH2F
C          2.77480        0.14840        1.97470
C          1.34400       -0.26300        1.52130
I          4.25280       -0.72220        0.66220
H          2.89440        1.24450        1.83200
F          0.49510        0.80950        1.73200
C          2.92820       -0.22890        3.45840
C          2.73010       -1.74570        3.64180
C          1.77760       -2.32010        2.57760
O          0.78850       -1.37940        2.22280
C          4.22320        0.26870        4.11620
H          2.08910        0.27690        3.98720
H          3.67450       -2.32980        3.58520
H          1.30440       -3.24140        2.97470
H          2.32690       -2.63820        1.66540
F          5.34140       -0.32880        3.56390
H          4.20130        0.03500        5.20190
H          4.30650        1.37020        4.00000
