20
TSA8_9_OH_NH2_CCl3
C          1.98010        0.00740       -0.24620
C          1.52930        0.24590       -1.49910
O          2.34030        0.99120        0.60040
H          2.04460       -1.01910        0.10710
N          1.14770       -0.85860       -2.30320
C          4.11040        3.43720       -2.69410
C          3.46900        2.62210       -1.83880
C          1.97540        2.68720       -1.65020
O          1.40260        1.49150       -2.04710
C          5.59970        3.35140       -2.90780
H          3.54390        4.17350       -3.25670
H          4.03320        1.88290       -1.27840
H          1.54650        3.49280       -2.28290
H          1.70850        2.93590       -0.60380
H          2.63900        0.78600        1.49670
H          0.80600       -0.70110       -3.26240
H          1.21890       -1.82740       -1.95630
Cl         6.11050        4.56990       -4.10370
Cl         6.47300        3.65560       -1.38340
Cl         6.04110        1.73850       -3.52800
