20
TSA8_9_OH_NH2_CCl3
C          3.14410        0.82590       -1.31400
C          1.61880        0.55800       -1.54490
O          3.37350        1.17840        0.02590
H          3.72780       -0.09550       -1.53960
N          1.44630       -0.43140       -2.60380
C          3.56920        1.98020       -2.24840
C          2.74280        3.24440       -1.90740
C          1.37530        2.88540       -1.30120
O          0.85620        1.71780       -1.89540
C          5.09550        2.26630       -2.29950
H          3.26960        1.66590       -3.27400
H          3.24280        3.92510       -1.18530
H          0.67670        3.73350       -1.45210
H          1.44420        2.74100       -0.19920
H          3.23240        0.35570        0.56370
H          0.42220       -0.60540       -2.72310
H          1.86730       -1.33340       -2.28580
Cl         5.43600        3.55820       -3.48560
Cl         5.76030        2.78050       -0.72160
Cl         5.99150        0.81770       -2.83280
