21
TSA8_9_NO2_CN_OMe
C          1.68500       -0.06780       -0.04710
C          1.52680       -1.08850       -0.92030
N          1.81560        1.28650       -0.42840
H          1.73560       -0.29140        1.01650
C          1.38410       -2.40590       -0.35580
C          2.44860        2.06060       -3.99180
C          2.47270        0.87870       -3.34930
C          1.18330        0.18130       -3.01820
O          1.40060       -0.96670       -2.27890
O          3.56520        2.76090       -4.32970
H          1.48730        2.49460       -4.25270
H          3.41190        0.41940       -3.05560
H          0.66950       -0.10470       -3.95860
H          0.48260        0.85160       -2.48370
O          2.86830        1.80670       -0.22330
O          0.74140        2.04330       -0.35540
N          1.26190       -3.48160        0.05250
C          4.86780        2.38050       -4.08300
H          5.54990        3.15480       -4.49020
H          5.08720        1.41470       -4.58580
H          5.04350        2.29060       -2.98970
