14
TSA8_9_I_Br_F
C          1.67700       -2.17850       -0.01440
C          0.94690       -1.17690        0.89280
I          1.35570       -1.62470       -2.06910
H          2.77320       -2.11700        0.15350
Br         1.53380       -1.21170        2.75410
C          1.17280       -3.59510        0.28860
C         -0.35230       -3.63250        0.19120
C         -0.93620       -2.55030        1.10820
O         -0.46550       -1.25690        0.75710
F          1.73510       -4.51200       -0.58140
H          1.46340       -3.87310        1.32510
H         -0.68100       -3.44720       -0.85350
H         -0.72560       -2.77850        2.17540
H         -2.04040       -2.56420        0.99880
