21
TSA8_9_OH_CBr3_CBr3
C          2.79970       -1.46760       -1.37510
C          1.68490       -2.38500       -0.89260
O          2.34490       -0.14080       -1.26260
H          3.68380       -1.59820       -0.70900
C          1.79180       -3.15800        0.41320
C          3.29200       -1.67280       -2.84750
C          2.16620       -1.41420       -3.83570
C          2.18720       -0.37870       -4.68130
O          0.63700       -2.42220       -1.51980
C          3.99160       -3.02540       -3.16570
H          4.07570       -0.89480       -2.99650
H          1.31520       -2.08550       -3.87170
H          1.36540       -0.22960       -5.37420
H          3.01410        0.32420       -4.69190
H          2.58080        0.18100       -0.35320
Br         2.04400       -1.92000        1.88340
Br         0.17270       -4.17190        0.78320
Br         3.26400       -4.41300        0.43230
Br         4.69710       -2.98990       -4.97890
Br         5.53400       -3.31240       -2.01980
Br         2.81350       -4.57060       -3.06340
