23
TSA8_9_CCl3_Et_Cl
C          1.54200       -0.03580       -0.13420
C          1.33230       -0.16860       -1.47140
C          1.88520        1.23590        0.62120
H          1.39420       -0.92020        0.48050
C          0.90280       -1.50980       -2.02470
C          3.80530        2.25720       -4.66390
C          2.76760        1.60150       -4.13420
C          2.55440        1.58380       -2.65080
O          1.41330        0.86760       -2.35010
Cl         4.05610        2.27320       -6.40170
H          4.50730        2.78810       -4.02800
H          2.07470        1.07680       -4.78650
H          2.42880        2.62870       -2.29540
H          3.44830        1.11860       -2.18830
Cl         0.73160        2.53980        0.23630
Cl         1.76600        0.91770        2.37120
Cl         3.55310        1.79060        0.33470
C          1.89640       -2.02320       -3.06130
H         -0.09550       -1.39800       -2.49890
H          0.81450       -2.27460       -1.22180
H          1.97320       -1.31590       -3.91310
H          1.55140       -3.00450       -3.45080
H          2.89880       -2.15400       -2.60090
