18
TSA8_9_H_CH2F_CN
C          1.37410        1.94220        0.59650
C          2.05810        1.81270       -0.73370
H          1.88820        1.52960        1.49090
H          0.58920        1.15820        0.48180
C          3.51630        2.04390       -0.84440
C          0.71090        3.34500        0.74970
C         -0.75030        3.07800        0.82000
C         -1.45200        3.05950       -0.30960
O          1.37830        1.85740       -1.75060
C          1.12280        4.18700        1.88100
H          0.93940        3.96130       -0.15460
H         -1.19070        2.72270        1.74760
H         -0.97650        3.32360       -1.25200
H         -2.47720        2.72670       -0.30080
F          3.74280        3.40220       -0.96190
H          3.89990        1.52200       -1.74600
H          4.02170        1.65340        0.06020
N          1.39860        4.90700        2.75470
