18
TSA8_9_H_CH2F_CN
C          1.26100        2.01500        1.02390
C          1.46750        1.69320       -0.47730
H          2.19500        1.83220        1.59770
H          0.49450        1.32460        1.44940
C          2.91560        2.01740       -0.89210
C          0.75650        3.45060        1.11110
C         -0.65340        3.43440        0.53930
C         -0.68570        2.70850       -0.82210
O          0.59620        2.40930       -1.36040
C          0.78510        4.00560        2.46740
H          1.38970        4.12110        0.49760
H         -1.33750        2.88390        1.23180
H         -1.18300        3.41860       -1.51480
H         -1.31890        1.79490       -0.79610
F          3.16120        3.37940       -0.86420
H          3.09990        1.65510       -1.92270
H          3.63870        1.51170       -0.21700
N          0.79810        4.46700        3.52830
