19
TSA8_9_I_CBr3_NO2
C          2.16030        0.45940       -2.02140
C          1.04260       -0.40800       -2.56590
I          1.51310        1.21070       -0.10910
H          3.06890       -0.15560       -1.84170
C          1.20840       -1.90450       -2.74810
C          2.49960        1.62800       -2.98100
C          3.57460        2.51430       -2.39080
C          3.36320        3.80820       -2.12900
O         -0.03150        0.11590       -2.82540
N          2.95160        1.13320       -4.26780
H          1.57040        2.22450       -3.13140
H          4.54980        2.08770       -2.17310
H          2.40360        4.27410       -2.33090
H          4.15860        4.41260       -1.70550
Br         1.63430       -2.73460       -1.04860
Br        -0.41990       -2.73590       -3.41340
Br         2.62060       -2.31620       -4.00640
O          3.96000        0.49840       -4.35530
O          2.27050        1.41790       -5.35710
