15
TSA8_9_H_CN_I
C          1.62790       -0.03320        0.06270
C          1.56520       -1.11130        0.87240
H          1.70410       -0.14010       -1.01990
H          1.48840        0.97450        0.44010
C          1.28150       -0.97370        2.27410
C          1.53170       -4.10430       -2.54340
C          1.46700       -2.94810       -1.88570
C          0.75820       -2.82410       -0.57780
O          1.64460       -2.36860        0.37840
I          2.56300       -4.21620       -4.37740
H          1.06130       -4.99790       -2.14770
H          1.93990       -2.06540       -2.30340
H          0.30100       -3.78010       -0.24380
H         -0.08790       -2.12570       -0.69840
N          1.05420       -0.89700        3.40550
