22
TSA8_9_CH2F_CH2F_NO2
C          2.78730       -0.51690       -1.43460
C          1.36260       -1.16170       -1.31130
C          2.67390        0.96100       -0.99000
H          3.49380       -1.01330       -0.73190
C          1.37190       -2.40620       -0.42680
C          3.28230       -0.73930       -2.89360
C          2.28090       -0.12520       -3.88670
C          0.83310       -0.36360       -3.42120
O          0.77110       -1.48760       -2.56910
N          4.64230       -0.31100       -3.18470
H          3.25570       -1.84000       -3.06220
H          2.42740        0.96300       -4.06130
H          0.18570       -0.51660       -4.30900
H          0.41690        0.52860       -2.90090
F          3.89570        1.60150       -0.96170
H          2.26340        0.99390        0.04210
H          1.99140        1.54100       -1.64050
F          0.08340       -2.88810       -0.28720
H          1.76420       -2.14930        0.57980
H          2.01040       -3.19460       -0.87880
O          5.35870        0.11370       -2.33030
O          5.13700       -0.51940       -4.38570
