18
TSA8_9_F_CH2F_CN
C          1.66700       -0.02250        0.04130
C          1.60150       -0.91580        1.16460
F          1.36660       -0.44300       -1.27240
H          1.41230        1.04600        0.12670
C          2.88440       -1.05510        2.04620
C          0.74160       -4.40790        1.37740
C          0.32560       -3.21980        0.93420
C         -0.23800       -2.14120        1.89600
O          0.53360       -0.98350        2.03670
C          1.28560       -5.36580        0.44500
H          0.68070       -4.65190        2.43800
H          0.42380       -3.01350       -0.13570
H         -0.32250       -2.59130        2.90000
H         -1.21720       -1.82110        1.49130
F          2.73310       -2.11510        2.92750
H          3.00980       -0.12300        2.61860
H          3.90470       -1.26430        1.64780
N          1.72570       -6.14700       -0.28680
