22
TSA8_9_CH2F_NH2_CF3
C          1.99440        1.79070       -1.27060
C          0.61890        1.53090       -1.85610
C          1.99950        1.25670        0.17770
H          2.74630        1.20810       -1.84860
N          0.46810        0.71500       -2.92630
C          2.37270        3.30670       -1.35180
C          3.76820        3.53050       -0.80550
C          4.00280        4.31560        0.25020
O         -0.36480        2.06130       -1.35900
C          2.33620        3.85960       -2.79700
H          1.63590        3.88800       -0.75130
H          4.60810        3.03780       -1.28810
H          3.19370        4.82700        0.76250
H          5.01800        4.44950        0.60950
F          3.25930        1.32590        0.74390
H          1.69300        0.18820        0.18160
H          1.28520        1.82850        0.80860
H         -0.46720        0.54050       -3.32240
H          1.28160        0.25720       -3.36300
F          3.20090        3.14870       -3.61200
F          1.06120        3.78920       -3.32810
F          2.71780        5.19070       -2.79660
