22
TSA8_9_CH2F_NH2_CF3
C          1.77430        0.06800       -0.10850
C          1.47510        0.71020       -1.26370
C          1.92960        0.70080        1.24700
H          1.88440       -1.01280       -0.13400
N          1.28130       -0.05710       -2.44140
C          2.43260        5.17490       -2.13350
C          2.64110        3.84800       -2.10040
C          2.23130        3.00850       -0.92510
O          1.32820        2.05910       -1.36320
C          2.82050        6.03620       -3.30540
H          1.96170        5.66610       -1.28660
H          3.11280        3.34290       -2.93800
H          1.75460        3.63250       -0.13880
H          3.14660        2.53450       -0.50720
F          3.20660        0.46770        1.72050
H          1.19830        0.23260        1.93840
H          1.72900        1.78550        1.26010
H          1.05020        0.41470       -3.32790
H          1.37290       -1.08370       -2.43640
F          3.39610        5.29780       -4.32560
F          1.69110        6.66510       -3.79400
F          3.72280        6.99430       -2.88400
