22
TSA8_9_CH2F_NH2_CF3
C          2.44170        1.42520       -1.31350
C          1.01070        1.41870       -1.09230
C          2.51790        0.85060        0.26220
H          2.87590        0.59570       -1.91430
N          0.31300        0.89210       -2.28940
C          2.58470        2.93830       -2.18300
C          3.01210        3.58180       -0.99130
C          1.85280        3.53740        0.01650
O          0.66960        2.70950       -0.44210
C          2.72350        4.38930       -3.01680
H          1.48350        3.14080       -2.43020
H          4.06760        3.16660       -0.95720
H          1.57480        4.56860        0.27800
H          2.42880        3.23670        0.91890
F          3.75950        0.69750        0.81810
H          1.95910       -0.12870        0.40900
H          1.88850        1.33050        1.08250
H          0.73670        1.20430       -3.20110
H          0.59340       -0.13170       -2.32060
F          3.42910        4.16630       -4.17980
F          1.49530        4.95780       -3.44030
F          3.35230        5.48150       -2.39640
