20
TSA8_9_CBr3_Cl_CF3
C          1.43520       -2.43680       -1.02690
C          1.04910       -1.81250        0.33580
C          1.57740       -1.30200       -2.10470
H          2.46510       -2.84490       -0.92650
Cl         1.55500       -2.77560        1.76460
C          0.46640       -3.65160       -1.25710
C         -0.99950       -3.23910       -1.07210
C         -1.17010       -2.53090        0.27550
O         -0.31090       -1.40830        0.39250
C          0.64060       -4.46050       -2.55270
H          0.69000       -4.36840       -0.43450
H         -1.34660       -2.59170       -1.89770
H         -1.01670       -3.24240        1.11540
H         -2.22130       -2.18410        0.35510
Br        -0.05000       -0.34580       -2.56820
Br         2.81470        0.04930       -1.44220
Br         2.41820       -1.90800       -3.74790
F          0.22520       -3.73970       -3.65680
F          1.96170       -4.84030       -2.70550
F         -0.13430       -5.60550       -2.48140
