19
TSA8_9_H_NO2_CH2F
C          2.82100        0.77150        0.71920
C          1.83210        1.36910       -0.30010
H          2.22700        0.34170        1.55530
H          3.40610       -0.05290        0.25770
N          2.43690        1.67220       -1.58770
C          3.74300        1.86480        1.26850
C          2.86530        2.98040        1.83920
C          1.92700        3.48760        0.74170
O          1.08410        2.45770        0.23810
C          4.68290        1.30850        2.34260
H          4.36110        2.27660        0.43930
H          2.26100        2.60070        2.69320
H          2.50930        3.97310       -0.06860
H          1.28540        4.27970        1.18030
O          2.25650        2.72500       -2.11950
O          3.04390        0.71410       -2.25460
F          5.50680        2.31260        2.82010
H          5.31710        0.50530        1.91100
H          4.10220        0.88470        3.19050
