21
TSA8_9_OH_CCl3_CCl3
C          3.11900        1.39570        0.32710
C          1.64840        1.47570       -0.04490
O          3.45190        0.06380        0.62390
H          3.71620        1.73950       -0.54660
C          1.22210        1.97900       -1.40720
C          3.46550        2.33160        1.52450
C          2.73560        1.88780        2.78000
C          1.83740        2.66640        3.39190
O          0.80390        1.11720        0.76360
C          4.99450        2.44040        1.80500
H          3.12940        3.35560        1.24100
H          2.94600        0.90770        3.19820
H          1.59510        3.65330        3.00960
H          1.33640        2.31410        4.28740
H          3.53490       -0.41320       -0.24320
Cl         1.91080        0.94140       -2.68240
Cl        -0.55550        1.97450       -1.59180
Cl         1.79610        3.64970       -1.64430
Cl         5.29350        3.61080        3.12240
Cl         5.73460        0.88510        2.28680
Cl         5.87040        3.05370        0.37360
