22
TSA8_9_CBr3_NH2_CHF2
C          1.43830       -0.36740        0.14910
C          2.04020       -0.89790        1.24510
C          2.00250       -0.34380       -1.25620
H          0.47040        0.10050        0.27540
N          3.32880       -1.49490        1.18040
C         -0.73360       -1.59950        4.96540
C         -0.17730       -1.90890        3.78490
C          0.08030       -0.87150        2.73120
O          1.43800       -0.85890        2.46630
C         -0.95440       -2.64430        6.01830
H         -1.02790       -0.57590        5.18000
H          0.11080       -2.93620        3.57670
H         -0.23480        0.13550        3.07700
H         -0.51240       -1.14580        1.83280
Br         0.75360        0.55550       -2.43780
Br         3.67170        0.64580       -1.34140
Br         2.24410       -2.14370       -1.94240
H          3.74810       -1.88180        2.03790
H          3.86020       -1.58490        0.30670
F         -1.77730       -3.64440        5.53240
F          0.25860       -3.18930        6.39910
H         -1.43270       -2.18090        6.90620
