23
TSA8_9_CBr3_CH2F_CHF2
C          1.15070       -0.91260        1.76690
C          2.45630       -0.78270        2.56480
C          1.29910       -1.45590        0.28940
H          0.84230        0.14050        1.57540
C          3.75090       -1.49260        2.25830
C          0.03740       -1.51230        2.72360
C         -1.31540       -1.65150        2.06250
C         -2.37050       -0.91400        2.42010
O          2.44650       -0.06180        3.55210
C          0.35780       -2.85240        3.43410
H         -0.05840       -0.77310        3.55160
H         -1.44500       -2.39510        1.28260
H         -2.29650       -0.16490        3.20120
H         -3.32380       -1.06080        1.92170
Br        -0.26680       -1.07040       -0.80340
Br         2.68950       -0.46740       -0.65570
Br         1.67690       -3.34940        0.07650
F          4.75100       -0.56290        2.04180
H          3.69680       -2.15510        1.38260
H          4.03040       -2.12360        3.12760
F          0.44190       -3.91400        2.56070
F          1.52010       -2.77550        4.17850
H         -0.46550       -3.07990        4.14550
