17
TSA8_9_Cl_CN_NH2
C          1.68820       -0.06990        0.03770
C          1.62770       -1.40360        0.28920
Cl         1.77900        0.68760       -1.55520
H          1.57110        0.63610        0.85480
C          1.49080       -1.86250        1.64630
C          2.28180       -3.52330       -3.30710
C          1.52760       -2.45330       -3.03390
C          0.75760       -2.35420       -1.75940
O          1.60900       -2.37090       -0.66720
N          2.98860       -3.61990       -4.53000
H          2.35620       -4.33490       -2.58830
H          1.45090       -1.64110       -3.74890
H          0.04000       -3.20440       -1.69880
H          0.13970       -1.43860       -1.77150
N          1.37920       -2.26850        2.72380
H          2.96680       -2.85860       -5.22550
H          3.55050       -4.45990       -4.72310
