17
TSA8_9_Cl_CN_NH2
C          2.47580       -1.34550       -1.26500
C          1.37720       -1.64790       -0.19490
Cl         2.07730        0.21420       -2.04590
H          3.47930       -1.22950       -0.79790
C          1.88420       -1.76390        1.17930
C          2.49140       -2.50100       -2.28880
C          1.07940       -2.70840       -2.87540
C          0.01330       -2.59170       -1.77200
O          0.59660       -2.79460       -0.50350
N          3.50340       -2.34140       -3.33870
H          2.75430       -3.40980       -1.70190
H          0.82450       -1.95940       -3.66030
H         -0.78060       -3.34240       -1.95690
H         -0.49050       -1.59530       -1.80040
N          2.25420       -1.85660        2.27230
H          3.10430       -1.84560       -4.17000
H          3.79320       -3.29180       -3.66890
