17
TSA8_9_I_CBr3_Br
C          3.03940       -2.06880       -0.59810
C          1.50740       -1.76300       -0.68830
I          4.09200       -0.20390       -0.38540
H          3.28470       -2.66070        0.30900
C          0.65630       -2.46130        0.38730
C          3.47730       -2.85170       -1.84530
C          3.09160       -2.10430       -3.13030
C          1.75710       -1.36230       -2.94940
O          0.96560       -2.02000       -1.98330
Br         5.36150       -3.32350       -1.84050
H          2.90870       -3.80650       -1.84040
H          3.85320       -1.36640       -3.46310
H          1.22470       -1.31180       -3.92130
H          1.93060       -0.30330       -2.64380
Br         1.23430       -1.95800        2.17140
Br        -1.19300       -1.90580        0.21030
Br         0.73080       -4.39400        0.21500
