24
TSA8_9_CH2F_CHF2_OMe
C          1.84750        0.09120       -0.16770
C          1.44560        1.05210       -1.02840
C          1.96160        0.28160        1.31980
H          2.08880       -0.89820       -0.54630
C          1.29780        0.73600       -2.49500
C          4.07380        3.72370       -1.66970
C          2.74900        3.78870       -1.50220
C          2.06730        3.26770       -0.26700
O          1.13130        2.30210       -0.59510
O          4.62750        4.21700       -2.80270
H          4.69950        3.27980       -0.89860
H          2.13500        4.23580       -2.27940
H          1.53910        4.12070        0.20620
H          2.80000        2.87070        0.46820
F          3.26720        0.05830        1.71280
H          1.30080       -0.45290        1.82530
H          1.64990        1.29100        1.65320
F         -0.00970        0.96160       -2.88180
F          2.13620        1.54060       -3.24130
H          1.55070       -0.32340       -2.71540
C          5.98200        4.20170       -3.06100
H          6.16870        3.63130       -3.99430
H          6.56200        3.73490       -2.23460
H          6.33800        5.24330       -3.20140
