24
TSA8_9_CH2F_CHF2_OMe
C          2.91010        1.21420       -0.75030
C          1.44990        1.38210       -1.23510
C          2.90460        0.83460        0.74660
H          3.38130        0.33110       -1.23780
C          1.23200        1.20060       -2.74360
C          3.75180        2.48460       -1.06130
C          2.87560        3.75840       -1.10330
C          1.58910        3.60380       -0.29410
O          0.75900        2.52610       -0.72490
O          4.38370        2.31240       -2.32050
H          4.51620        2.56090       -0.25340
H          2.55990        3.97690       -2.14300
H          1.01430        4.54630       -0.41660
H          1.80960        3.52550        0.78630
F          4.19300        0.57150        1.17860
H          2.30520       -0.09090        0.88610
H          2.46990        1.60760        1.40180
F         -0.12420        1.17840       -3.00930
F          1.81560        2.20630       -3.48590
H          1.66450        0.22900       -3.06130
C          5.48980        3.18140       -2.44980
H          6.00310        2.95030       -3.40550
H          6.23780        3.02420       -1.64140
H          5.16260        4.24240       -2.50170
