15
TSA8_9_OH_F_Cl
C          1.51540       -1.68770       -0.35180
C          1.13160       -0.74800        0.76530
O          1.03540       -1.21290       -1.58620
H          2.62800       -1.75720       -0.38340
F          1.52200       -1.01900        2.03840
C          0.97170       -3.10490       -0.09140
C         -0.53670       -3.12260       -0.03720
C         -1.20000       -3.51620        1.05420
O          0.47460        0.25670        0.54150
Cl         1.51100       -4.21300       -1.38260
H          1.40100       -3.47870        0.86530
H         -1.10110       -2.80590       -0.90970
H         -0.67320       -3.83930        1.94680
H         -2.28490       -3.51580        1.05860
H          1.67960       -0.52560       -1.90090
