15
TSA8_9_OH_F_Cl
C          1.85530       -0.03690        0.03170
C          1.21510       -1.00240        0.69440
O          1.87980       -0.02940       -1.31680
H          2.35820        0.75210        0.58330
F          1.19970       -0.97880        2.05570
C         -0.45000       -5.21380       -0.36680
C         -0.71850       -3.90400       -0.38710
C         -0.16290       -2.96480        0.64370
O          0.58220       -1.99140        0.01660
Cl        -1.12320       -6.27720       -1.59150
H          0.18300       -5.64320        0.40380
H         -1.35730       -3.49970       -1.16720
H          0.47140       -3.50880        1.37850
H         -1.01120       -2.49190        1.18490
H          2.33510        0.67660       -1.79590
