15
TSA8_9_Cl_OH_H
C          1.30070       -1.60130        0.80850
C          2.73360       -1.05810        0.71400
Cl         0.59650       -1.64060       -0.83800
H          0.63910       -0.93290        1.39980
O          3.29090       -0.87450        1.98230
C          1.32050       -3.00500        1.44030
C          2.62690       -3.76060        1.14040
C          3.28350       -3.23930       -0.14410
O          3.60540       -1.84650       -0.09950
H          1.26250       -2.92320        2.54790
H          0.42480       -3.57220        1.10950
H          3.35930       -3.55930        1.95390
H          2.63760       -3.45280       -1.02060
H          4.22640       -3.80700       -0.28890
H          3.44840        0.10140        2.04720
