17
TSA8_9_I_I_CCl3
C          1.56830       -2.43960        1.60250
C          1.25440       -1.30380        0.65030
I          3.55640       -3.14090        1.15160
H          1.62980       -1.99040        2.61500
I          1.22790       -1.51440       -1.46280
C          0.43310       -3.51770        1.64420
C          0.28150       -4.22880        0.31560
C         -0.84800       -4.16220       -0.39860
O          1.05470       -0.18770        1.10200
C          0.55950       -4.56610        2.79580
H         -0.50150       -2.95320        1.86800
H          1.10790       -4.81950       -0.07040
H         -1.70050       -3.58760       -0.04980
H         -0.92380       -4.68700       -1.34430
Cl        -0.92330       -5.56260        2.86130
Cl         1.92800       -5.69980        2.61370
Cl         0.70170       -3.77280        4.38980
