17
TSA8_9_I_I_CCl3
C          2.03450       -0.18370        0.60390
C          1.52500       -1.32460        0.11810
I          3.48120        1.01530       -0.38240
H          1.69480        0.18070        1.56890
I          2.16960       -2.08420       -1.77850
C         -0.65720       -4.93000        2.02290
C          0.20460       -4.27720        1.22620
C         -0.18720       -3.03760        0.47670
O          0.60710       -1.98070        0.87800
C         -0.26400       -6.18750        2.75460
H         -1.66810       -4.54850        2.14170
H          1.21710       -4.65120        1.10020
H         -1.24810       -2.76820        0.66680
H         -0.09550       -3.24550       -0.60660
Cl        -1.63950       -6.78590        3.71610
Cl         0.20240       -7.45760        1.59240
Cl         1.10030       -5.87090        3.85830
