17
TSA8_9_Br_Cl_CCl3
C          1.84370       -0.04020       -0.19230
C          1.44000        0.23920       -1.43950
Br         2.16680        1.31650        1.12310
H          1.97530       -1.07350        0.11180
Cl         1.11480       -1.07880       -2.55540
C          2.35630        1.69560       -4.59710
C          3.00170        1.86070       -3.43170
C          2.28340        2.36450       -2.20970
O          1.24940        1.51470       -1.86000
C          3.05410        1.18910       -5.83270
H          1.29660        1.93360       -4.65160
H          4.06090        1.63050       -3.35660
H          1.86530        3.36930       -2.42990
H          3.00180        2.46710       -1.37010
Cl         1.89880        1.09830       -7.18590
Cl         4.37870        2.28940       -6.29590
Cl         3.71530       -0.44210       -5.54700
