21
TSA8_9_OH_Et_Cl
C          2.39470        0.75210        0.43070
C          1.25320        1.51460       -0.22010
O          1.90550       -0.30030        1.22760
H          3.00120        0.28730       -0.37620
C          1.13270        1.61140       -1.71830
C          3.34920        1.67860        1.21900
C          2.66970        2.39970        2.35790
C          2.59740        3.73400        2.40060
O          0.40610        2.05270        0.47820
Cl         4.71280        0.73190        1.87480
H          3.77410        2.41520        0.50150
H          2.22820        1.82590        3.16670
H          3.02520        4.34630        1.61250
H          2.10250        4.22410        3.23210
H          1.28730        0.08120        1.90300
C          2.31130        2.37540       -2.31940
H          0.19960        2.15510       -1.98390
H          1.07890        0.59110       -2.15300
H          2.35470        3.40210       -1.89590
H          2.18330        2.44940       -3.41950
H          3.27110        1.85780       -2.11250
