21
TSA8_9_OH_Et_Cl
C          1.68190       -0.04190       -0.31390
C          1.38660        1.27200       -0.37850
O          1.96240       -0.66020        0.85640
H          1.69770       -0.64040       -1.21940
C          1.05010        1.91320       -1.71100
C          4.12890        1.98110        2.71780
C          2.86640        2.37500        2.51800
C          2.38300        2.83090        1.17200
O          1.35420        2.00690        0.76260
Cl         4.64960        1.44090        4.30490
H          4.84980        1.98200        1.90580
H          2.16250        2.35930        3.34510
H          3.21970        2.82270        0.43720
H          2.00500        3.87140        1.25820
H          1.95910       -0.20720        1.71140
C          2.00800        3.04010       -2.08300
H          0.01710        2.31820       -1.66320
H          1.08140        1.15810       -2.52720
H          1.95220        3.86520       -1.34410
H          1.72530        3.45150       -3.07510
H          3.04910        2.65690       -2.14070
