18
TSA8_9_CN_CN_NH2
C          2.76390        0.22310        1.58560
C          1.77610        1.39460        1.53970
C          2.31130       -0.88160        0.69350
H          3.72540        0.61240        1.18540
C          1.43210        2.10060        0.33390
C          2.95750       -0.29060        3.06370
C          1.92430       -1.36260        3.36250
C          0.64400       -1.06340        3.57180
O          1.29810        1.84790        2.56820
N          4.31690       -0.77690        3.33570
H          2.84200        0.56570        3.76420
H          2.20580       -2.40980        3.26320
H          0.31640       -0.03690        3.63920
H         -0.08850       -1.85390        3.65940
N          1.91700       -1.75010        0.02380
N          1.17120        2.68840       -0.62650
H          4.43860       -1.78890        3.11310
H          4.49890       -0.67360        4.36550
