18
TSA8_9_CN_CN_NH2
C          1.66040        0.09050        0.02990
C          1.58200        1.11330        0.95580
C          1.78560       -1.34550        0.23210
H          1.49250        0.30530       -1.01090
C          1.25910        2.43180        0.47290
C          3.23420       -0.57920        4.50690
C          2.56380       -0.88040        3.38900
C          1.31260       -0.14350        3.01570
O          1.64040        0.99360        2.31450
N          4.43270       -1.25470        4.84630
H          2.86000        0.19370        5.17090
H          2.93160       -1.66730        2.73910
H          0.72910        0.11060        3.92310
H          0.60500       -0.76530        2.43240
N          1.88740       -2.48150        0.43960
N          0.99970        3.49690        0.10310
H          4.85170       -1.95370        4.21500
H          4.92330       -1.01280        5.71880
