18
TSA8_9_CN_CN_NH2
C          2.81220        0.00770        1.47740
C          1.49170        0.84110        1.42910
C          2.43500       -1.26260        0.82230
H          3.59950        0.48390        0.84890
C          1.53490        2.10610        0.68060
C          3.18350       -0.13810        3.00410
C          2.03610       -0.87140        3.70040
C          0.69490       -0.23620        3.29180
O          0.89390        1.03490        2.70310
N          4.47880       -0.72720        3.37670
H          3.21890        0.89840        3.41060
H          2.03430       -1.94990        3.39990
H          0.08940       -0.12960        4.20960
H          0.12590       -0.88990        2.58950
N          2.11040       -2.26500        0.34100
N          1.52490        3.10650        0.09750
H          4.48460       -1.76930        3.31490
H          4.61060       -0.52310        4.40400
