20
TSA8_9_CBr3_Me_Br
C          1.59770       -0.82330        1.52710
C          2.90520       -1.61880        1.50050
C          1.34660        0.00120        0.22140
H          1.73940       -0.04810        2.31520
C          3.20640       -2.75370        0.56190
C          0.37400       -1.65150        2.03240
C         -0.06790       -2.78590        1.14210
C         -1.28250       -2.81130        0.58300
O          3.78110       -1.30820        2.29470
Br         0.73610       -2.38550        3.79660
H         -0.47400       -0.94890        2.17520
H          0.59790       -3.62000        0.96120
H         -1.99310       -2.00560        0.74080
H         -1.57340       -3.64780       -0.04390
Br        -0.15500        1.21530        0.45050
Br         2.88640        1.12700       -0.15610
Br         0.98870       -1.02700       -1.38970
H          3.41470       -3.67150        1.15070
H          4.10470       -2.50110       -0.03950
H          2.38630       -2.97300       -0.13800
