20
TSA8_9_CBr3_Me_Br
C          1.19940       -1.11330        1.60210
C          1.88690       -2.36030        0.95450
C          1.31250        0.22440        0.78970
H          1.71730       -0.98170        2.57660
C          3.34540       -2.29360        0.52470
C         -0.29330       -1.50790        1.89290
C         -0.43760       -3.03090        1.98210
C         -0.02040       -3.62230        0.60870
O          1.07290       -2.95930       -0.02230
Br        -0.96770       -0.73130        3.54570
H         -0.95240       -1.19220        1.05570
H          0.23750       -3.39990        2.78650
H         -0.89410       -3.48920       -0.06370
H          0.17380       -4.71200        0.69860
Br         0.34200        1.69110        1.61520
Br         3.13730        0.88500        0.68150
Br         0.63020        0.03830       -1.02280
H          3.69790       -3.31720        0.28010
H          3.96880       -1.89990        1.35430
H          3.45810       -1.66810       -0.38330
