18
TSA8_9_OH_OH_NH2
C          1.07760       -0.10260       -1.56330
C          0.96760       -1.03910       -0.37930
O          0.30070        1.04270       -1.31720
H          2.14990        0.19010       -1.67090
O          2.07000       -1.42660        0.29810
C          0.69820       -0.71690       -2.94070
C         -0.73850       -1.19760       -3.06200
C         -1.18530       -2.30910       -2.46950
O         -0.12660       -1.40420        0.01880
N          0.96490        0.28060       -3.98230
H          1.36710       -1.58350       -3.14230
H         -1.42750       -0.65200       -3.70110
H         -0.53390       -2.92830       -1.86300
H         -2.21430       -2.62270       -2.61120
H          0.86740        1.67480       -0.80170
H          2.95860       -1.14880        0.03570
H          0.31950        1.09860       -3.88300
H          0.81390       -0.14610       -4.92580
