18
TSA8_9_OH_OH_NH2
C          1.98890       -0.11660        0.02940
C          1.31530       -1.12470       -0.54080
O          1.95050        1.12090       -0.50630
H          2.57020       -0.28880        0.93120
O          1.35140       -2.36640        0.00100
C         -0.08460       -0.79440       -4.52640
C         -0.81770       -1.27430       -3.51200
C         -0.16980       -1.85560       -2.29120
O          0.59400       -0.89240       -1.66590
N         -0.70250       -0.25100       -5.67940
H          1.00040       -0.82020       -4.47230
H         -1.90230       -1.25180       -3.56870
H          0.46770       -2.71700       -2.58900
H         -0.95980       -2.21200       -1.59490
H          2.43160        1.85090       -0.09320
H          1.85700       -2.57190        0.80080
H         -1.72890       -0.20990       -5.76580
H         -0.12060        0.10920       -6.44910
