18
TSA8_9_I_OH_CBr3
C          1.85910       -0.05010       -2.32940
C          2.91280       -0.87760       -1.62740
I          1.24260        1.53230       -1.01180
H          0.95020       -0.67160       -2.46530
O          2.69130       -2.17950       -1.34490
C          2.27060        0.52100       -3.72190
C          3.46840        1.44810       -3.60980
C          3.38420        2.75390       -3.88520
O          3.96900       -0.36950       -1.28520
C          2.51640       -0.55840       -4.81990
H          1.39170        1.10950       -4.07000
H          4.43000        1.04980       -3.30410
H          2.44760        3.20440       -4.19800
H          4.26350        3.38340       -3.79620
H          1.86910       -2.62420       -1.59210
Br         2.81440        0.30290       -6.53820
Br         4.05680       -1.70230       -4.49020
Br         0.96060       -1.70010       -5.05520
