18
TSA8_9_I_OH_CBr3
C          1.57600       -0.12260       -0.00080
C          2.03240       -0.13880       -1.26130
I          0.99290        1.67840        0.94980
H          1.53510       -1.03850        0.58110
O          2.43800       -1.30450       -1.81580
C          2.76590        0.71780       -5.37710
C          3.04040        0.37730       -4.10750
C          2.96190        1.36570       -2.96980
O          2.06760        1.02040       -1.96940
C          2.92940       -0.26770       -6.50680
H          2.43780        1.72850       -5.60330
H          3.38220       -0.63040       -3.90300
H          2.67070        2.37080       -3.34630
H          3.97120        1.45390       -2.52560
H          2.40020       -2.14970       -1.34850
Br         2.45910        0.56580       -8.19190
Br         4.77810       -0.85170       -6.62280
Br         1.78930       -1.81550       -6.24980
