18
TSA8_9_I_OH_CBr3
C          1.65020       -0.23440       -2.66280
C          2.79360       -0.43780       -1.65220
I          0.17610        1.00280       -1.69500
H          1.11950       -1.19080       -2.85060
O          3.69120       -1.42780       -2.05820
C          2.14930        0.43030       -3.98200
C          3.55640        1.03200       -3.78820
C          3.66500        1.67020       -2.39680
O          3.48960        0.75800       -1.31170
C          2.08420       -0.49590       -5.22800
H          1.46150        1.27340       -4.20610
H          4.34440        0.25260       -3.85620
H          2.92290        2.49200       -2.30760
H          4.67740        2.11780       -2.31280
H          3.56480       -2.16190       -1.40510
Br         2.65530        0.46730       -6.81720
Br         3.18750       -2.08890       -5.06970
Br         0.25670       -1.07050       -5.55930
