21
TSA8_9_Et_CN_F
C          1.05840       -1.48280       -0.64320
C          1.91670       -1.40720        0.60900
C          1.70320       -0.81820       -1.90870
H          0.13270       -0.90400       -0.41720
C          1.44270       -0.66380        1.75130
C          0.60050       -2.93900       -0.94310
C          0.21670       -3.71430        0.29680
C         -0.72730       -3.31800        1.15230
O          2.95000       -2.05190        0.70080
F          1.62360       -3.63860       -1.56230
H         -0.26170       -2.90040       -1.64690
H          0.75680       -4.63270        0.51100
H         -0.92890       -3.91710        2.03540
H         -1.28340       -2.40140        0.99480
C          3.12830       -0.27840       -1.72600
H          1.05980        0.02440       -2.24320
H          1.72730       -1.53380       -2.75880
H          3.14480        0.52040       -0.95410
H          3.49420        0.14920       -2.68260
H          3.82380       -1.09330       -1.43540
N          1.05740       -0.05990        2.66110
