26
TSA8_9_CH2F_Et_CH2F
C          1.91210       -0.06000       -0.16790
C          1.41520       -0.58280       -1.32600
C          1.96770        1.36210        0.31900
H          2.33740       -0.75560        0.55140
C          1.47770       -2.08400       -1.50810
C          2.86150        1.59860       -3.90300
C          2.05800        2.06640       -2.93410
C          0.71610        1.43710       -2.66780
O          0.83860        0.09550       -2.36700
C          4.20400        2.19920       -4.21840
H          2.53950        0.74890       -4.49890
H          2.35970        2.91900       -2.33450
H          0.11570        1.52340       -3.59820
H          0.13710        1.96490       -1.88670
F          3.28630        1.70970        0.54240
H          1.41840        1.42000        1.28170
H          1.52580        2.11580       -0.33320
C          2.31360       -2.44820       -2.73170
H          0.44470       -2.47090       -1.64080
H          1.91930       -2.59630       -0.62510
H          1.87850       -2.00070       -3.65080
H          2.33390       -3.55200       -2.85250
H          3.35540       -2.08330       -2.60570
F          4.50550        3.27110       -3.39530
H          4.20580        2.54700       -5.27240
H          4.98710        1.42280       -4.09570
