21
TSA8_9_OMe_H_CH2F
C          0.58860        0.80010        1.74120
C          1.22760        1.05290        0.39370
O          1.45050        0.02090        2.55420
H         -0.39110        0.28270        1.59970
H          0.72910        0.71950       -0.50990
C          0.29380        2.14550        2.44890
C         -0.67850        2.96330        1.62550
C         -0.35170        4.15170        1.11010
O          2.30440        1.62040        0.31260
C         -0.28960        1.93670        3.85660
H          1.25460        2.69640        2.57010
H         -1.67510        2.56890        1.44070
H          0.63390        4.57920        1.26330
H         -1.07720        4.70280        0.52020
C          1.52470       -1.31200        2.08090
H          1.91960       -1.95110        2.89560
H          2.22940       -1.37790        1.22440
H          0.53060       -1.73300        1.81120
F         -1.48430        1.23900        3.80200
H         -0.46910        2.92130        4.33940
H          0.42610        1.37450        4.49310
