21
TSA8_9_OMe_H_CH2F
C          0.58710        0.78320        1.91320
C          0.79830        1.14880        0.42100
O          1.71630        0.12520        2.45970
H         -0.32100        0.13580        1.94970
H         -0.16470        1.13860       -0.14170
C          0.32280        2.06500        2.74590
C         -0.43510        3.06610        1.87670
C          0.51080        3.45780        0.71140
O          1.39730        2.41930        0.28200
C         -0.40010        1.76580        4.06410
H          1.29740        2.54440        2.99920
H         -1.35810        2.57540        1.49720
H          1.15790        4.26990        1.10270
H         -0.06640        3.87340       -0.14180
C          1.80140       -1.19920        1.97720
H          2.59590       -1.72520        2.54520
H          2.09530       -1.21290        0.90550
H          0.86260       -1.77090        2.15010
F         -1.64380        1.20440        3.82950
H         -0.53570        2.70640        4.63900
H          0.20450        1.06500        4.67760
