20
TSA8_9_CBr3_F_CH2F
C          1.27330       -0.81440        1.82800
C          0.06690       -0.39590        1.00460
C          2.46450       -1.17090        0.87140
H          1.60770        0.08730        2.38960
F         -0.56840       -1.28480        0.19640
C          0.77830       -1.83350        2.92200
C          0.18500       -3.11180        2.36550
C         -1.10790       -3.41710        2.51440
O         -0.34520        0.75110        1.06350
C          1.80270       -2.19240        4.01020
H         -0.02130       -1.27750        3.46620
H          0.82030       -3.81670        1.84380
H         -1.78820       -2.75180        3.03680
H         -1.49470       -4.34700        2.10990
Br         2.80640        0.33450       -0.31790
Br         4.16000       -1.40910        1.78380
Br         2.16030       -2.70740       -0.28020
F          2.75330       -3.08690        3.55750
H          1.27220       -2.69200        4.84960
H          2.28590       -1.27720        4.41390
