17
TSA8_9_Br_NH2_OH
C          3.02710       -0.24040       -1.55290
C          1.54360       -0.37570       -1.81860
Br         3.30100        0.34020        0.28570
H          3.47790       -1.25370       -1.63560
N          1.01930       -1.56830       -2.19060
C          3.81340        0.65240       -2.54930
C          3.46210        2.12690       -2.52570
C          2.32170        2.62440       -3.01180
O          0.79970        0.58030       -1.66300
O          5.17750        0.52440       -2.23440
H          3.64560        0.25470       -3.57900
H          4.19510        2.82810       -2.13550
H          1.56980        1.98910       -3.46320
H          2.14540        3.69500       -2.98240
H          0.00650       -1.66480       -2.35620
H          1.61830       -2.39750       -2.31530
H          5.68800        0.67130       -3.07390
