17
TSA8_9_Br_NH2_OH
C          1.81170        0.00050       -0.14020
C          1.52610       -0.32480       -1.42120
Br         2.01400        1.75950        0.59640
H          1.90010       -0.79620        0.59210
N          1.34460       -1.69340       -1.74650
C          4.11820        1.35330       -4.28090
C          3.57450        1.17610       -3.06790
C          2.18690        1.65910       -2.73780
O          1.38050        0.57680       -2.43620
O          5.35710        0.89590       -4.56650
H          3.56240        1.86560       -5.06090
H          4.13890        0.65900       -2.29630
H          1.74050        2.18070       -3.61200
H          2.22410        2.39900       -1.92500
H          1.13370       -1.96740       -2.71720
H          1.44230       -2.43420       -1.03460
H          5.89560        0.41740       -3.91950
