17
TSA8_9_Br_NH2_OH
C          2.98950       -0.06970       -1.44090
C          1.44340        0.06670       -1.63080
Br         3.58500        1.03080        0.05390
H          3.25710       -1.11180       -1.16100
N          0.83490       -1.23310       -1.89720
C          3.68340        0.33110       -2.74670
C          3.30070        1.77290       -3.13150
C          1.87330        2.11480       -2.67060
O          1.06020        0.96320       -2.67670
O          5.07490        0.19260       -2.64010
H          3.29850       -0.36240       -3.53030
H          3.98340        2.53540       -2.69530
H          1.45030        2.88870       -3.34330
H          1.87330        2.56470       -1.65230
H          1.24490       -1.64650       -2.76480
H          1.01330       -1.87230       -1.08980
H          5.44110        0.30220       -3.55650
