20
TSA8_9_CH2F_NO2_OH
C          2.58820        0.91490       -1.03650
C          1.23670        0.34490       -1.58880
C          2.42680        1.27350        0.45210
H          3.37950        0.13370       -1.08720
N          1.42900       -0.97410       -2.16150
C          3.01610        2.10620       -1.92080
C          1.90510        3.17220       -2.02010
C          0.51890        2.50810       -2.01060
O          0.60230        1.20350       -2.53970
O          4.25880        2.65220       -1.55500
H          3.13280        1.69550       -2.94830
H          1.92500        3.93000       -1.20740
H         -0.18830        3.12300       -2.60430
H          0.09190        2.47370       -0.98200
F          3.63440        1.67120        0.99610
H          2.08590        0.37520        1.01030
H          1.68060        2.07760        0.60740
O          1.15000       -1.19160       -3.30190
O          1.87130       -1.95610       -1.40540
H          4.11210        3.26910       -0.79270
