17
TSA8_9_Br_CHF2_I
C          3.02370       -0.78270       -1.34810
C          1.47260       -0.91990       -1.49230
Br         3.45520        0.97810       -0.62860
H          3.41750       -1.50940       -0.60440
C          0.97260       -2.26850       -0.96980
C          3.67430       -1.01530       -2.71810
C          3.11930       -0.02810       -3.75690
C          1.65590        0.33300       -3.45060
O          1.00220       -0.75230       -2.83200
I          5.81750       -0.97940       -2.67750
H          3.38590       -2.03820       -3.04320
H          3.69370        0.92190       -3.81030
H          1.13990        0.61000       -4.39280
H          1.59060        1.23210       -2.79580
F         -0.40790       -2.30790       -1.03730
F          1.49380       -3.30620       -1.72180
H          1.27520       -2.39750        0.09070
