17
TSA8_9_CCl3_Br_Cl
C          1.65790       -0.91950        1.32200
C          0.83110        0.32270        1.04660
C          1.70140       -1.84260        0.05350
H          2.70240       -0.57440        1.48860
Br         1.66320        2.04530        1.03880
C          1.20510       -1.54080        2.68550
C         -0.18740       -2.12350        2.68700
C         -1.16730       -1.61260        3.43970
O         -0.36950        0.24790        0.83660
Cl         2.33580       -2.77600        3.30430
H          1.25740       -0.71760        3.43380
H         -0.40550       -2.99170        2.07710
H         -0.99850       -0.74820        4.07460
H         -2.15460       -2.06230        3.42200
Cl         0.10160       -2.43820       -0.47710
Cl         2.38090       -0.92260       -1.32040
Cl         2.77000       -3.25520        0.25790
