17
TSA8_9_CCl3_Br_Cl
C          1.82080       -0.01660       -0.00030
C          1.10750        0.02350        1.14140
C          2.22480       -1.24010       -0.80280
H          2.14860        0.93550       -0.40990
Br         0.75180        1.75520        1.90940
C         -0.08880       -3.05300        4.42500
C         -0.43190       -2.55190        3.23280
C         -0.14500       -1.12750        2.86080
O          0.65050       -1.10670        1.73560
Cl        -0.44260       -4.72680        4.82020
H          0.41070       -2.43760        5.16690
H         -0.93250       -3.18800        2.50860
H          0.36780       -0.59690        3.69320
H         -1.10800       -0.61560        2.64510
Cl         1.69920       -2.82590       -0.16480
Cl         1.55550       -1.07410       -2.44330
Cl         3.99980       -1.26990       -0.92360
