20
TSA8_9_NO2_CF3_OH
C          1.77750        0.07970       -0.12280
C          1.37670        0.52810       -1.34110
N          1.86950        0.89000        1.04670
H          2.01990       -0.97340       -0.00740
C          1.19600       -0.42110       -2.50300
C          4.05320        2.90690       -2.94620
C          2.73360        3.08730       -2.77700
C          2.07110        2.84200       -1.45200
O          1.12670        1.84030       -1.60300
O          4.64160        3.11410       -4.14430
H          4.67350        2.58250       -2.11540
H          2.11850        3.40400       -3.61400
H          1.57130        3.77130       -1.10810
H          2.84120        2.56490       -0.69920
O          2.32400        0.41430        2.04480
O          1.27560        2.06170        1.11690
F         -0.12020       -0.37230       -2.92250
F          2.01120       -0.02300       -3.54590
F          1.50580       -1.72990       -2.17440
H          4.14340        3.39510       -4.92500
