20
TSA8_9_NO2_CF3_OH
C          2.78360        0.83680       -1.03040
C          1.29050        0.75770       -1.47150
N          2.87230        1.19140        0.38230
H          3.27240       -0.15860       -1.11830
C          1.02020       -0.07180       -2.73400
C          3.54920        1.86100       -1.91160
C          2.68060        3.09000       -2.25670
C          1.42280        3.16160       -1.38960
O          0.59680        2.00990       -1.53010
O          3.96840        1.24420       -3.10160
H          4.46210        2.17290       -1.35460
H          2.32710        3.02220       -3.30840
H          0.84060        4.04780       -1.71850
H          1.67520        3.34020       -0.32570
O          3.94240        1.25210        0.91130
O          1.79150        1.32290        1.12460
F         -0.34630       -0.19020       -2.91040
F          1.55830        0.51960       -3.85930
F          1.55120       -1.34030       -2.58270
H          4.60810        1.86570       -3.53920
