26
TSA8_9_CCl3_CHF2_Et
C          1.65660       -1.50580        1.47460
C          3.08840       -1.36370        2.03300
C          1.55980       -1.93340       -0.04140
H          1.27300       -0.46000        1.44170
C          4.36020       -1.85390        1.38490
C          0.75880       -2.20640        2.58190
C         -0.72970       -2.16600        2.29940
C         -1.57280       -1.40300        3.00330
O          3.22010       -0.79290        3.10660
C          1.18480       -3.60880        3.11120
H          0.92480       -1.54960        3.46720
H         -1.14280       -2.78400        1.51140
H         -1.22200       -0.76740        3.81010
H         -2.63270       -1.41220        2.77020
Cl         2.14050       -3.56630       -0.44770
Cl        -0.09680       -1.79000       -0.68580
Cl         2.50190       -0.78370       -1.03960
F          5.20690       -0.78040        1.17750
F          4.98010       -2.75650        2.22940
H          4.21360       -2.35000        0.41740
C          0.68860       -4.84810        2.35840
H          0.73880       -3.71250        4.12620
H          2.28650       -3.65010        3.24200
H         -0.41980       -4.87290        2.32350
H          1.02470       -5.75520        2.90400
H          1.07570       -4.92860        1.34120
