18
TSA8_9_NH2_OH_OH
C          2.44850        1.59780       -0.21720
C          1.49770        0.96900       -1.21990
N          2.39140        0.88170        1.05960
H          3.47610        1.47660       -0.62740
O          1.96740        0.44420       -2.37290
C          2.27540        3.12740        0.00530
C          0.98590        3.54770        0.68420
C         -0.20960        3.52070        0.08940
O          0.30670        0.87530       -0.97400
O          3.34750        3.55280        0.80870
H          2.35230        3.63640       -0.98540
H          1.03800        3.93540        1.69840
H         -0.32880        3.19590       -0.93620
H         -1.08770        3.85650        0.63210
H          2.63100       -0.12570        0.90690
H          1.42700        0.93640        1.46150
H          2.90740        0.46120       -2.60140
H          3.47410        4.52330        0.63700
