22
TSA8_9_OMe_CN_Me
C          2.25390       -0.92170        1.15290
C          1.70640        0.22900        1.97050
O          1.25290       -1.18290        0.17400
H          3.22760       -0.60010        0.70450
C          2.19890        1.57340        1.81210
C          2.47530       -2.18170        2.07090
C          1.61990       -3.33730        1.60550
C          0.39660       -3.52870        2.10560
O          0.69040        0.06450        2.62880
C          3.93610       -2.64200        2.20280
H          2.16980       -1.92880        3.11170
H          1.96870       -3.97500        0.79730
H          0.00300       -2.87090        2.87520
H         -0.22810       -4.32770        1.72460
C          1.77090       -1.15680       -1.13500
H          2.39070       -2.05790       -1.32810
H          2.32180       -0.21380       -1.34670
H          0.91180       -1.17860       -1.83760
N          2.57320        2.65730        1.65800
H          4.57610       -1.82610        2.59910
H          4.34300       -2.98450        1.22760
H          3.99260       -3.49410        2.91890
