22
TSA8_9_OMe_CN_Me
C          2.65560       -1.03940        1.07140
C          1.33560       -0.25170        1.46040
O          2.47330       -1.87180       -0.07530
H          3.49300       -0.32990        0.86960
C          1.60540        1.13580        1.86460
C          2.96490       -1.95810        2.29230
C          1.79860       -2.94480        2.41970
C          0.45140       -2.22980        2.30340
O          0.59620       -0.84790        2.52340
C          4.27290       -2.76420        2.34580
H          2.99290       -1.30740        3.19450
H          1.83930       -3.72800        1.62450
H         -0.20690       -2.66200        3.08300
H         -0.03490       -2.40260        1.31760
C          1.86250       -1.19810       -1.16350
H          1.93440       -1.85160       -2.05980
H          2.37430       -0.24610       -1.42340
H          0.77370       -1.04660       -0.98940
N          1.78340        2.23370        2.18590
H          5.16580       -2.10940        2.40900
H          4.37590       -3.47880        1.50360
H          4.25520       -3.36500        3.28820
