21
TSA8_9_Cl_OMe_CH2F
C          3.56380       -1.17410        0.70970
C          2.27520       -1.22840        1.49020
Cl         3.44590        0.10310       -0.54170
H          4.36900       -0.87350        1.41550
O          2.29820       -0.96170        2.82130
C          3.94030       -2.55750        0.11720
C          2.93080       -3.02520       -0.91140
C          2.21930       -4.14480       -0.74820
O          1.22400       -1.50510        0.92790
C          5.33810       -2.52370       -0.51890
H          3.98640       -3.28030        0.96360
H          2.77910       -2.43680       -1.81180
H          2.33820       -4.76350        0.13570
H          1.50600       -4.44810       -1.50750
C          1.18660       -1.01660        3.63460
H          1.48030       -0.74770        4.67010
H          0.76750       -2.04560        3.63740
H          0.41660       -0.29780        3.28180
F          5.68850       -3.78630       -0.96470
H          6.08850       -2.19890        0.23300
H          5.36980       -1.81990       -1.37720
