18
TSA8_9_F_OH_Me
C          3.06620        0.51980       -1.33050
C          1.50980        0.49370       -1.27650
F          3.56780        1.00230       -0.13150
H          3.45440       -0.51370       -1.46230
O          1.00930       -0.57430       -2.03730
C          3.49130        1.44370       -2.47860
C          2.93650        2.86340       -2.23340
C          1.65210        2.83300       -1.38310
O          0.86760        1.70290       -1.69410
C          5.00710        1.46630       -2.68710
H          3.02570        1.05160       -3.40910
H          3.65300        3.52990       -1.70440
H          1.07320        3.76240       -1.56240
H          1.89170        2.82790       -0.29480
H          1.17770       -0.35780       -2.99080
H          5.37640        0.44120       -2.90260
H          5.52320        1.84910       -1.78060
H          5.26220        2.11990       -3.54850
