23
TSA8_9_CF3_CCl3_Me
C          2.08070       -2.02360       -0.83560
C          0.77420       -2.53840       -0.24220
C          1.92090       -0.51750       -1.17330
H          2.87740       -2.11320       -0.06390
C          0.69350       -3.02280        1.19590
C          2.49830       -2.86230       -2.08890
C          3.83440       -2.40290       -2.62990
C          3.97290       -1.92450       -3.87020
O         -0.23020       -2.54640       -0.94050
C          2.61680       -4.36120       -1.77750
H          1.71200       -2.74840       -2.86950
H          4.71090       -2.46530       -1.99010
H          3.12310       -1.84600       -4.54110
H          4.94890       -1.60570       -4.22140
F          3.11950        0.02720       -1.59620
F          0.97470       -0.33670       -2.16770
F          1.51830        0.18140       -0.04940
Cl         1.79830       -4.39160        1.47530
Cl         1.13440       -1.70950        2.31590
Cl        -0.95760       -3.56390        1.61610
H          1.64540       -4.77250       -1.43340
H          3.38790       -4.54150       -0.99810
H          2.90430       -4.91810       -2.69540
