23
TSA8_9_CF3_CCl3_Me
C          1.73700       -0.11850        0.03570
C          1.47440       -1.45830        0.04670
C          1.87620        0.81090       -1.14850
H          1.83950        0.40620        0.97640
C          1.25550       -2.21650        1.35170
C          2.71480       -4.45710       -3.26780
C          2.84980       -3.69820       -2.17160
C          2.31560       -2.29640       -2.09870
O          1.38300       -2.22250       -1.08000
C          3.26320       -5.84980       -3.30740
H          2.20430       -4.07100       -4.14590
H          3.36300       -4.09830       -1.30210
H          1.83000       -2.01790       -3.05830
H          3.17690       -1.61890       -1.90990
F          3.17200        1.28820       -1.20160
F          1.54870        0.23890       -2.35680
F          1.02020        1.87970       -0.95930
Cl         2.47770       -3.50430        1.48900
Cl         1.33820       -1.24440        2.85430
Cl        -0.35470       -2.97810        1.30640
H          2.79050       -6.46590       -2.51350
H          4.36250       -5.82790       -3.15030
H          3.05030       -6.30980       -4.29480
