29
TSA8_9_Et_CHF2_Et
C          2.55570       -0.95540       -1.32290
C          1.39610       -1.60830       -0.58610
C          2.52220        0.55180       -0.91600
H          3.48470       -1.42150       -0.92610
C          1.65900       -2.65870        0.45700
C          2.43590       -1.32490       -2.84920
C          1.54530       -0.36830       -3.61530
C          0.38130       -0.75150       -4.14910
O          0.24500       -1.27910       -0.83880
C          3.76410       -1.61260       -3.60270
H          1.97110       -2.33960       -2.87640
H          1.85620        0.66320       -3.74190
H          0.02460       -1.77210       -4.05150
H         -0.22690       -0.03520       -4.69170
C          3.67400        1.43150       -1.37500
H          2.53370        0.59630        0.19670
H          1.57070        1.01750       -1.25370
H          4.63880        1.02750       -1.00460
H          3.54360        2.44830       -0.94760
H          3.67290        1.54690       -2.47230
F          0.47230       -3.11100        1.00780
F          2.32610       -3.72600       -0.11500
H          2.28620       -2.22600        1.26410
C          4.74480       -0.46840       -3.81040
H          3.49490       -1.99530       -4.61280
H          4.30370       -2.43040       -3.07580
H          4.26640        0.37060       -4.35600
H          5.59750       -0.83230       -4.42190
H          5.16880       -0.14340       -2.84580
