18
TSA8_9_CN_CF3_F
C          1.94620       -1.55030       -0.51150
C          2.43130       -1.89020        0.88020
C          2.50500       -0.31700       -1.12270
H          0.87980       -1.33260       -0.33770
C          1.83270       -1.15280        2.05660
C          2.04550       -2.72340       -1.52070
C          0.93340       -2.52370       -2.51190
C         -0.32840       -2.66830       -2.07760
O          3.10880       -2.88880        1.07830
F          3.28600       -2.75570       -2.14520
H          1.87880       -3.71480       -1.04180
H          1.13870       -2.22470       -3.53420
H         -0.51280       -2.97380       -1.04510
H         -1.17650       -2.47770       -2.71580
N          2.89830        0.63720       -1.64700
F          0.45020       -1.25210        2.00990
F          2.26030       -1.70540        3.24940
F          2.18680        0.18110        2.01670
