18
TSA8_9_CN_CF3_F
C          2.45530       -1.46030       -0.62090
C          1.24890       -1.58710        0.36690
C          2.17000       -0.35520       -1.55420
H          3.41130       -1.23410       -0.09780
C          1.55820       -1.33520        1.84890
C          2.57660       -2.77930       -1.41620
C          1.23760       -3.08960       -2.09770
C          0.07910       -2.91410       -1.09570
O          0.56550       -2.82340        0.22780
F          3.59930       -2.74760       -2.34910
H          2.78930       -3.60830       -0.70400
H          1.06000       -2.41030       -2.96420
H         -0.58290       -3.79770       -1.17940
H         -0.54510       -2.02110       -1.34040
N          1.91760        0.49620       -2.29690
F          0.38830       -1.47680        2.57530
F          2.48450       -2.24930        2.31890
F          2.03980       -0.05350        2.03930
