16
TSA8_9_H_NO2_Cl
C          2.78420       -0.41230        1.87370
C          1.27750       -0.45110        1.70120
H          3.24650       -0.14610        0.89830
H          3.04670        0.39820        2.58450
N          0.45290        0.33880        2.44760
C          3.43430       -1.70140        2.43060
C          3.34140       -2.91670        1.53340
C          2.21480       -3.61200        1.35430
O          0.79810       -1.17810        0.84320
Cl         5.16850       -1.34870        2.68950
H          3.01010       -1.94760        3.42830
H          4.24020       -3.28080        1.04290
H          1.29220       -3.33740        1.85180
H          2.21860       -4.48960        0.71540
O         -0.72900        0.30150        2.27620
O          0.93780        1.14650        3.36650
