21
TSA8_9_OMe_Br_CH2F
C          0.51400       -1.53250       -0.62980
C          1.29250       -0.99070        0.54770
O          1.34530       -1.57700       -1.77910
H         -0.38490       -0.89660       -0.80830
Br         0.69490        0.58550        1.45040
C          0.00260       -2.96360       -0.32590
C         -0.89760       -2.95890        0.89220
C         -0.60060       -3.65270        1.99520
O          2.30940       -1.54910        0.92850
C         -0.76930       -3.55090       -1.51870
H          0.88430       -3.62050       -0.14560
H         -1.81190       -2.37210        0.87200
H          0.30370       -4.24980        2.05820
H         -1.26900       -3.62360        2.84950
C          1.51020       -0.28600       -2.32860
H          2.02110       -0.38780       -3.30760
H          2.15910        0.34100       -1.67950
H          0.53640        0.21220       -2.53300
F         -1.88080       -2.78140       -1.81940
H         -1.10150       -4.58420       -1.28040
H         -0.11610       -3.60380       -2.41510
