14
TSA8_9_I_Cl_Br
C          1.91650        0.17460        0.13060
C          1.42900        1.28860        0.71430
I          2.54090       -1.61140        1.09760
H          1.96130        0.13390       -0.95240
Cl         0.87180        2.59050       -0.32470
C          2.22450        2.25970        5.22020
C          2.47820        2.27290        3.90760
C          2.19940        1.08610        3.03240
O          1.29810        1.46420        2.05710
Br         2.58860        3.80130        6.29020
H          1.80790        1.37990        5.70090
H          2.89590        3.16670        3.45270
H          1.76820        0.24950        3.62380
H          3.16500        0.76590        2.58970
