21
TSA8_9_CBr3_NH2_NH2
C          1.41140       -0.38360        0.08890
C          1.97640       -1.15550        1.05400
C          1.99250       -0.10180       -1.28020
H          0.46520        0.09580        0.30690
N          3.23590       -1.78800        0.87090
C         -0.87920       -2.34960        4.59400
C         -0.33090       -2.49170        3.37900
C          0.00610       -1.30980        2.51740
O          1.36480       -1.33720        2.25830
N         -1.17090       -3.47990        5.39720
H         -1.10470       -1.35980        4.98080
H         -0.11140       -3.48580        2.99860
H         -0.25030       -0.35710        3.02880
H         -0.59110       -1.39110        1.58460
Br         0.80060        1.07820       -2.25590
Br         3.70760        0.80320       -1.16040
Br         2.15760       -1.73390       -2.31880
H          3.62860       -2.35800        1.63320
H          3.77340       -1.72220       -0.00180
H         -0.95590       -4.43470        5.07370
H         -1.59200       -3.34990        6.32810
