21
TSA8_9_CBr3_NH2_NH2
C          0.90230       -1.54150        1.05750
C          1.45760       -0.14880        1.48310
C          1.62460       -2.19950       -0.15720
H         -0.12400       -1.29850        0.70100
N          2.83700       -0.14730        1.96700
C          0.77820       -2.45040        2.31510
C          0.40000       -1.61160        3.55110
C         -0.23900       -0.26990        3.18430
O          0.61850        0.55660        2.39940
N         -0.19450       -3.52020        2.08970
H          1.75490       -2.91320        2.56540
H         -0.15560       -2.19690        4.31630
H         -0.45070        0.26640        4.13240
H         -1.20600       -0.42510        2.65860
Br         1.78780       -0.92120       -1.61180
Br         3.39950       -2.88980        0.24530
Br         0.59640       -3.68570       -0.87170
H          2.98180       -0.86300        2.71340
H          3.49180       -0.30360        1.17060
H         -1.15080       -3.11630        1.96440
H         -0.20740       -4.16510        2.91350
