18
TSA8_9_OMe_H_F
C          1.38200        0.04020       -0.19870
C          0.95430        0.04770        1.06530
O          1.54350       -1.13250       -0.85390
H          1.58530        0.98430       -0.69850
H          0.81360        0.99900        1.57250
C         -1.29530       -3.17120        3.51540
C         -1.14080       -2.02990        2.83730
C          0.10780       -1.20420        2.94470
O          0.68950       -1.12090        1.69690
F         -2.43880       -3.89130        3.38080
H         -0.51560       -3.54000        4.17530
H         -1.93740       -1.68840        2.18270
H          0.83470       -1.66620        3.64650
H         -0.16170       -0.19940        3.34000
C          1.91020       -1.19110       -2.17830
H          1.97550       -2.25340       -2.49100
H          2.90060       -0.70960       -2.32410
H          1.14820       -0.68040       -2.80590
