26
TSA8_9_Et_CHF2_CH2F
C          2.50780        1.27870       -0.79880
C          1.33030        0.61800       -1.49790
C          2.47550        0.79490        0.68160
H          3.42920        0.87530       -1.27570
C          1.56810       -0.37360       -2.60270
C          2.46240        2.81720       -1.09830
C          1.40960        3.53370       -0.28070
C          0.34930        4.12110       -0.84430
O          0.18550        0.88530       -1.16010
C          3.81500        3.55230       -1.00530
H          2.21810        2.90160       -2.18370
H          1.51870        3.57630        0.79830
H          0.20060        4.10370       -1.91940
H         -0.38310        4.62610       -0.22290
C          3.65720        1.17660        1.56250
H          2.46860       -0.31820        0.65310
H          1.53750        1.11900        1.18280
H          4.61560        0.89110        1.07930
H          3.57370        0.63490        2.52860
H          3.63320        2.24650        1.81960
F          0.36850       -0.86170       -3.09090
F          2.26030        0.23480       -3.63340
H          2.16750       -1.22240       -2.21190
F          4.29130        3.69620        0.27620
H          3.69400        4.57620       -1.42080
H          4.57600        3.02980       -1.62320
