26
TSA8_9_Et_CHF2_CH2F
C          1.89180        0.01930       -0.21510
C          1.45840        0.44540       -1.43810
C          1.92570        0.72440        1.12080
H          2.26360       -1.00080       -0.15280
C          1.53170       -0.52480       -2.59030
C          2.56360        4.64120       -1.49100
C          2.22520        3.47170       -0.92800
C          0.85220        2.87440       -1.10540
O          0.93190        1.66620       -1.76580
C          3.93620        5.21630       -1.31710
H          1.84380        5.19110       -2.09090
H          2.96210        2.93980       -0.33870
H          0.23550        3.55100       -1.73470
H          0.29200        2.77800       -0.15770
C          3.34640        0.73080        1.67880
H          1.27690        0.15850        1.82280
H          1.56390        1.75480        1.11090
H          3.72530       -0.30840        1.78660
H          3.35130        1.21180        2.67980
H          4.02800        1.29460        1.00840
F          0.26060       -0.73440       -3.09180
F          2.32780        0.00970       -3.58570
H          1.95620       -1.50980       -2.29890
F          4.18710        5.44600        0.02340
H          4.01070        6.17700       -1.86850
H          4.69450        4.51230       -1.72040
