26
TSA8_9_Et_CHF2_CH2F
C          2.48870        1.49700       -0.80670
C          1.17390        0.95900       -1.48620
C          2.38250        1.23910        0.72040
H          3.34280        0.88050       -1.16840
C          1.46220       -0.08580       -2.56630
C          2.68610        2.97280       -1.27030
C          1.43800        3.82510       -0.96050
C          0.15650        2.99190       -1.08100
O          0.33950        1.97550       -2.03710
C          3.96690        3.70290       -0.84690
H          2.74930        2.89330       -2.37960
H          1.44310        4.29160        0.04850
H         -0.68690        3.65120       -1.37180
H         -0.13350        2.54780       -0.10020
C          3.72620        1.17430        1.45420
H          1.95120        0.22250        0.86130
H          1.69680        1.96240        1.20670
H          4.36520        0.38390        1.00590
H          3.54590        0.91100        2.51800
H          4.28750        2.11680        1.44210
F          0.27130       -0.59450       -3.05030
F          2.17090        0.48380       -3.60920
H          2.05270       -0.92120       -2.13490
F          3.92260        4.10000        0.47580
H          4.06470        4.63000       -1.45190
H          4.85930        3.07070       -1.03890
