18
TSA8_9_OMe_F_F
C          0.60700       -1.21420       -0.27410
C          1.58650       -0.77530        0.78790
O          1.28800       -1.44820       -1.49540
H         -0.18790       -0.43900       -0.39380
F          1.42390        0.42540        1.40290
C         -0.10220       -2.51480        0.14200
C         -0.88950       -2.32770        1.41470
C         -0.63780       -3.04360        2.51480
O          2.52990       -1.48670        1.09510
F         -0.97730       -2.89830       -0.85970
H          0.65680       -3.32050        0.26210
H         -1.68470       -1.58830        1.43680
H          0.14920       -3.79110        2.53210
H         -1.22500       -2.88120        3.41280
C          1.52550       -0.23210       -2.17230
H          2.02600       -0.46190       -3.13550
H          2.21330        0.42320       -1.59450
H          0.57570        0.29070       -2.42080
