18
TSA8_9_OMe_F_F
C          1.44310        0.15270       -0.15790
C          1.00290       -0.52810        0.90200
O          1.60030       -0.47310       -1.34830
H          1.65800        1.21420       -0.06120
F          0.82720        0.12100        2.08570
C         -1.25970       -4.57590        1.02360
C         -1.12140       -3.24840        1.09490
C          0.07540       -2.60630        1.73430
O          0.72510       -1.84840        0.78150
F         -2.35450       -5.11350        0.42580
H         -0.50540       -5.23980        1.43500
H         -1.89190       -2.61040        0.67130
H          0.77960       -3.37310        2.12290
H         -0.26920       -1.98760        2.59150
C          1.96360        0.20020       -2.49090
H          2.02600       -0.52050       -3.33240
H          2.95420        0.68330       -2.35420
H          1.20020        0.97010       -2.73730
