18
TSA8_9_OMe_F_F
C          0.39650       -1.27730       -0.38950
C          1.07350       -0.73240        0.89520
O          1.34450       -1.48300       -1.42090
H         -0.39000       -0.54020       -0.68340
F          0.25500        0.16680        1.56550
C         -0.30350       -2.62070       -0.10420
C         -0.87050       -2.58800        1.30680
C          0.33650       -2.49400        2.27470
O          1.46400       -1.77280        1.76860
F         -1.28930       -2.86190       -1.04440
H          0.43210       -3.45610       -0.14030
H         -1.53370       -1.69950        1.39630
H          0.68480       -3.53680        2.42850
H          0.01760       -2.10150        3.26360
C          1.60690       -0.27070       -2.09400
H          2.37940       -0.46090       -2.86700
H          2.01930        0.49720       -1.40290
H          0.70120        0.10030       -2.62260
