19
TSA8_9_CCl3_F_NO2
C          1.60460       -1.92980        1.10230
C          1.41430       -0.46470        1.44380
C          1.56150       -2.14900       -0.44960
H          2.64140       -2.18500        1.41590
F          2.43370        0.22890        2.01480
C          0.66360       -2.80990        1.99930
C         -0.81780       -2.56710        1.75180
C         -1.61940       -2.06270        2.69610
O          0.35970        0.10670        1.21530
N          0.99100       -4.22540        1.88410
H          0.88570       -2.52320        3.05320
H         -1.25460       -2.82340        0.79480
H         -1.23810       -1.79750        3.67740
H         -2.67360       -1.91170        2.48830
Cl         1.91390       -3.83600       -0.91080
Cl         0.01890       -1.68000       -1.21990
Cl         2.83590       -1.15850       -1.21870
O          0.16630       -5.02990        1.56620
O          2.20250       -4.63820        2.19150
