19
TSA8_9_NH2_Br_CBr3
C          3.04900       -0.56690       -1.39380
C          1.58150       -1.02410       -1.13280
N          3.18170        0.85670       -1.08040
H          3.73560       -1.12510       -0.72250
Br         1.47690       -2.39110        0.23940
C          3.43030       -0.88120       -2.86660
C          2.37850       -0.28750       -3.82880
C          0.95630       -0.43610       -3.26010
O          0.91450       -1.47430       -2.30400
C          4.88690       -0.54310       -3.28850
H          3.33370       -1.98690       -2.95890
H          2.54240        0.77920       -4.09390
H          0.25160       -0.64790       -4.09030
H          0.60680        0.51970       -2.80260
H          2.97060        1.00760       -0.06720
H          2.50910        1.42590       -1.64210
Br         5.21360       -1.17740       -5.09670
Br         5.29430        1.35950       -3.26440
Br         6.17060       -1.44770       -2.14470
