19
TSA8_9_CF3_I_NH2
C          1.60880       -1.28240        1.73780
C          1.10110        0.09440        1.36460
C          1.62680       -2.19400        0.48590
H          2.66780       -1.16530        2.05810
I          2.36460        1.77660        1.53890
C          0.82990       -1.83040        2.97620
C         -0.65960       -1.99780        2.73860
C         -1.56610       -1.29740        3.42810
O         -0.03690        0.25380        0.95060
N          1.40230       -3.09290        3.44970
H          0.98590       -1.07880        3.78510
H         -1.00900       -2.70860        1.99760
H         -1.26630       -0.57710        4.18320
H         -2.62400       -1.44280        3.23710
F          2.37180       -1.58650       -0.51060
F          2.22180       -3.40930        0.76730
F          0.35160       -2.41600       -0.00020
H          1.14250       -3.87570        2.80860
H          0.99700       -3.31940        4.38730
