16
TSA8_9_OH_Cl_CN
C          1.61490        0.00920       -0.05210
C          1.54790        0.44810       -1.39400
O          1.62610        0.72790        1.09540
H          1.48540       -1.05800        0.12240
Cl         1.45500       -0.82810       -2.61390
C          2.51090        4.64470       -0.24210
C          2.28190        3.33790       -0.40250
C          1.07670        2.79510       -1.12380
O          1.43260        1.72900       -1.92340
C          3.77500        5.05610        0.31610
H          1.78670        5.39120       -0.55930
H          3.02880        2.64510       -0.05170
H          0.68060        3.59010       -1.76960
H          0.23040        2.51640       -0.45280
H          1.10130        1.51820        1.24440
N          4.79930        5.35170        0.76670
