16
TSA8_9_OH_Cl_CN
C          2.23600        1.57690        0.22250
C          1.18140        1.04680       -0.79920
O          1.86820        1.16050        1.51370
H          3.21980        1.13190       -0.04430
Cl         1.49010       -0.69040       -1.09490
C          2.37390        3.12320        0.18810
C          2.33960        3.62290       -1.24500
C          1.06120        3.08500       -1.86390
O          1.21900        1.69760       -2.05280
C          3.60150        3.62040        0.83130
H          1.50560        3.58280        0.70280
H          3.21120        3.24400       -1.83280
H          0.89540        3.57180       -2.84330
H          0.16930        3.32900       -1.23260
H          0.93280        1.48110        1.65920
N          4.55650        4.04530        1.32970
