24
TSA8_9_OH_Et_CF3
C          2.07400        0.18610       -0.30660
C          1.54400        1.26100       -0.92380
O          2.26260        0.16310        1.02800
H          2.34000       -0.69650       -0.88230
C          1.30610        1.23920       -2.41400
C          2.69190        4.66830       -1.29720
C          3.07230        3.82280       -0.32720
C          2.04940        3.14320        0.54110
O          1.19410        2.38650       -0.24130
C          3.69100        5.35340       -2.18090
H          1.63460        4.86570       -1.45460
H          4.12660        3.62020       -0.16020
H          1.45870        3.92380        1.06510
H          2.54970        2.52610        1.31310
H          2.62770       -0.62040        1.46170
C         -0.16650        1.46000       -2.73850
H          1.62880        0.27350       -2.86220
H          1.90490        2.05080       -2.87910
H         -0.78320        0.64940       -2.29750
H         -0.30660        1.45680       -3.84000
H         -0.50840        2.44000       -2.34200
F          4.42580        4.41080       -2.87700
F          3.03080        6.16550       -3.08370
F          4.54400        6.12890       -1.41560
