23
TSA8_9_CBr3_CBr3_Me
C          2.51730       -2.33900       -0.45280
C          0.94500       -2.16680       -0.55970
C          3.30790       -0.98780       -0.67270
H          2.74930       -2.61780        0.59740
C          0.17150       -2.53730        0.73570
C          2.92210       -3.55840       -1.34210
C          2.40500       -3.41540       -2.78410
C          1.04560       -2.70550       -2.82050
O          0.35710       -2.92800       -1.61720
C          4.39540       -3.96680       -1.32390
H          2.36490       -4.42110       -0.91690
H          3.10030       -2.92120       -3.49420
H          0.45760       -3.09640       -3.67610
H          1.13280       -1.61510       -3.00210
Br         2.53910        0.47570        0.34370
Br         5.12910       -1.11540       -0.00050
Br         3.43630       -0.31650       -2.48980
Br         0.74510       -1.57880        2.32290
Br        -1.70500       -2.11370        0.48710
Br         0.30090       -4.43690        1.12470
H          4.73460       -4.13310       -0.27950
H          5.02710       -3.19790       -1.81200
H          4.52820       -4.91520       -1.88730
