25
TSA8_9_NH2_Et_CF3
C          2.91330        1.99460       -0.77610
C          1.37660        1.69490       -0.69960
N          3.63450        1.24140        0.25410
H          3.32010        1.66180       -1.75590
C          0.78720        1.21560       -2.03620
C          3.13110        3.51770       -0.63150
C          2.48210        4.03630        0.66820
C          1.17900        3.28000        0.98010
O          0.60180        2.78870       -0.20900
C          4.59710        3.96090       -0.76370
H          2.57280        3.98940       -1.47070
H          3.13920        3.97450        1.56280
H          0.47490        3.96200        1.49850
H          1.35170        2.43960        1.69070
H          3.31230        1.48020        1.21580
H          3.48680        0.21760        0.10220
C          0.83550        2.28450       -3.13180
H         -0.27330        0.93000       -1.86790
H          1.33460        0.31160       -2.37840
H          0.27650        3.19080       -2.81700
H          0.37110        1.88650       -4.05800
H          1.88210        2.56780       -3.36730
F          5.10820        3.53830       -1.97810
F          4.67190        5.34170       -0.71190
F          5.36740        3.43320        0.25720
