19
TSA8_9_F_NO2_CH2F
C          3.07830        0.17560       -0.87760
C          1.77880       -0.56320       -1.25070
F          2.74350        1.44160       -0.42340
H          3.59680       -0.35560       -0.05080
N          1.95490       -1.99790       -1.41730
C          3.98830        0.28180       -2.10920
C          3.19780        0.95830       -3.23150
C          1.92350        0.15310       -3.49920
O          1.09760        0.04940       -2.34430
C          5.27340        1.05630       -1.79780
H          4.27450       -0.74260       -2.43830
H          2.92500        1.99840       -2.94500
H          2.17970       -0.84530       -3.90950
H          1.34980        0.67560       -4.29250
O          1.50670       -2.56670       -2.36650
O          2.46400       -2.70320       -0.43070
F          6.07690        1.11390       -2.92300
H          5.83540        0.54380       -0.98820
H          5.04150        2.09190       -1.46840
