24
TSA8_9_OMe_CF3_Me
C          1.35180        1.08090       -1.12170
C          1.74250       -0.34150       -1.46170
O          2.49520        1.73140       -0.58590
H          0.49210        1.04780       -0.40430
C          1.03370       -1.50910       -0.83220
C          0.86850        1.83890       -2.38250
C         -0.37050        1.17880       -2.94740
C         -0.40450        0.66510       -4.17990
O          2.65220       -0.54180       -2.25440
C          0.54100        3.30180       -2.05840
H          1.68770        1.83830       -3.13690
H         -1.26290        1.11960       -2.32950
H          0.46470        0.70210       -4.82890
H         -1.31380        0.19980       -4.54610
C          2.27270        2.12290        0.75190
H          1.46670        2.88730        0.81330
H          3.20040        2.58900        1.14150
H          2.04910        1.24390        1.39630
F         -0.30990       -1.46640       -1.15420
F          1.56560       -2.70330       -1.28800
F          1.17570       -1.45070        0.54130
H         -0.26250        3.36710       -1.29320
H          0.20550        3.82890       -2.97730
H          1.44220        3.82710       -1.67710
