24
TSA8_9_OMe_CF3_Me
C          1.45440       -0.06960       -0.02980
C          1.37630       -0.67250       -1.22770
O          1.48060        1.28230        0.04020
H          1.48270       -0.65500        0.88540
C          1.33060       -2.17510       -1.37340
C          0.92390        2.75030       -3.52200
C          0.02370        1.96610       -2.91500
C          0.14250        0.47170       -2.94210
O          1.32950        0.09400       -2.34430
C          0.80110        4.24170       -3.47930
H          1.76150        2.30640       -4.05470
H         -0.81460        2.41400       -2.38500
H          0.12550        0.10880       -3.99150
H         -0.73160        0.03510       -2.40840
C          1.42660        1.96100        1.23450
H          1.48660        3.05110        1.03580
H          2.27650        1.66490        1.88690
H          0.46590        1.74540        1.74950
F          0.15480       -2.53910       -2.00300
F          2.39970       -2.58740       -2.14600
F          1.39330       -2.81900       -0.14900
H          0.83930        4.59330       -2.42670
H         -0.15980        4.55700       -3.93850
H          1.63820        4.70350       -4.04310
