23
TSA8_9_Et_Cl_CHF2
C          1.79760        0.25170       -0.07440
C          1.35150        1.51310        0.16200
C          1.87370       -0.95310        0.83310
H          2.14870        0.05220       -1.08410
Cl         1.40770        2.62410       -1.19990
C          2.40240        2.20220        4.34370
C          2.09890        1.48330        3.25100
C          0.73800        1.56320        2.60520
O          0.83400        2.03870        1.31350
C          3.75710        2.12040        4.98000
H          1.66300        2.86200        4.78840
H          2.85330        0.83360        2.82420
H          0.10570        2.27930        3.17180
H          0.18510        0.60550        2.63510
C          3.30840       -1.46980        0.89680
H          1.23130       -1.75060        0.40260
H          1.52990       -0.78270        1.85670
H          3.66880       -1.73640       -0.12000
H          3.35060       -2.37810        1.53430
H          3.98160       -0.69890        1.32750
F          4.00920        0.82420        5.39150
F          4.72850        2.51650        4.07940
H          3.79200        2.79110        5.86510
