23
TSA8_9_Et_Cl_CHF2
C          2.40490        1.04290        1.36490
C          1.08330        1.62400        0.74640
C          2.33030       -0.50900        1.34120
H          3.23670        1.31690        0.67840
Cl         1.46080        2.87300       -0.47290
C          2.60290        1.72900        2.75000
C          1.37510        1.49490        3.65540
C          0.08330        1.40280        2.83240
O          0.18320        2.20970        1.68540
C          3.90510        1.46890        3.52250
H          2.61980        2.81630        2.50810
H          1.43890        0.57620        4.27750
H         -0.77220        1.72890        3.45920
H         -0.14660        0.35480        2.53690
C          3.69110       -1.21380        1.35440
H          1.88260       -0.80850        0.36720
H          1.67670       -0.90360        2.14440
H          4.30390       -0.87260        0.49310
H          3.53350       -2.30860        1.25390
H          4.26800       -1.05040        2.27320
F          3.93050        0.20970        4.09030
F          5.00310        1.64600        2.70020
H          3.97210        2.19590        4.36020
