20
TSA8_9_CCl3_I_Me
C          2.43870       -1.95380       -0.12990
C          1.08880       -1.67690        0.60920
C          2.61990       -0.94680       -1.31660
H          3.27480       -1.75190        0.57540
I          1.32740       -0.57570        2.43390
C          2.50410       -3.48680       -0.43920
C          1.20780       -4.01400       -1.07520
C         -0.02610       -3.37680       -0.41570
O          0.31750       -2.84270        0.84650
C          3.73700       -3.98760       -1.19330
H          2.54880       -3.97150        0.56340
H          1.14330       -3.91130       -2.17970
H         -0.81990       -4.14370       -0.30700
H         -0.46510       -2.58490       -1.06630
Cl         1.42390       -1.16470       -2.62230
Cl         2.45960        0.73620       -0.73880
Cl         4.25140       -1.02980       -2.03480
H          4.66350       -3.65430       -0.67950
H          3.73320       -3.63210       -2.24320
H          3.73440       -5.09840       -1.21880
