20
TSA8_9_CBr3_Br_CBr3
C          1.23510       -1.89980       -1.19480
C          0.63990       -1.34280        0.08950
C          1.45300       -0.73240       -2.22610
H          2.25840       -2.23550       -0.92300
Br         1.64110       -1.40820        1.71950
C          0.42600       -3.21340       -1.57050
C         -1.06290       -2.96650       -1.76260
C         -1.97630       -3.43290       -0.90300
O         -0.47400       -0.84150        0.10430
C          0.95220       -4.12580       -2.72110
H          0.55010       -3.84190       -0.65720
H         -1.41470       -2.40890       -2.62050
H         -1.68620       -4.00330       -0.02620
H         -3.03040       -3.24150       -1.07540
Br         2.35200        0.76680       -1.35980
Br         2.68800       -1.17380       -3.65480
Br        -0.17210       -0.00240       -2.99910
Br         0.06770       -5.85690       -2.61130
Br         0.56080       -3.48800       -4.52000
Br         2.84920       -4.51010       -2.54290
