27
TSA8_9_Et_Et_CN
C          2.36650       -1.52770        0.43110
C          1.20480       -1.20740        1.37560
C          2.05390       -0.89410       -1.00360
H          3.24970       -1.03090        0.88310
C          1.37870       -0.35370        2.60790
C          2.57320       -3.10490        0.43760
C          1.86540       -3.70870       -0.73110
C          0.55110       -3.90420       -0.71400
O          0.09080       -1.65050        1.14680
C          3.94740       -3.61320        0.43860
H          2.18360       -3.53660        1.39150
H          2.39490       -3.76920       -1.68390
H         -0.01160       -3.78460        0.20120
H          0.03700       -4.13540       -1.63600
C          3.12000        0.01660       -1.60450
H          1.09350       -0.33450       -1.00190
H          1.82060       -1.63070       -1.78850
H          2.89420        1.07150       -1.34380
H          3.08080       -0.05040       -2.71850
H          4.13840       -0.26260       -1.27570
C          1.10210       -1.15410        3.88150
H          0.66460        0.49610        2.54790
H          2.40590        0.06060        2.67090
H          0.07110       -1.56870        3.87510
H          1.20770       -0.49540        4.77020
H          1.82910       -1.98930        3.97300
N          5.01010       -4.10950        0.45020
