17
TSA8_9_F_F_CHF2
C          3.16280        1.01360        1.52690
C          1.69590        0.96710        1.19120
F          3.86980        0.29600        0.57590
H          3.48140        2.07690        1.47040
F          1.02790        2.12010        0.92610
C          3.46100        0.48420        2.95140
C          3.10510       -0.98190        3.07960
C          2.18640       -1.41510        3.94850
O          1.10030       -0.09710        1.13490
C          4.94180        0.67690        3.32280
H          2.86200        1.08700        3.67180
H          3.61120       -1.70670        2.44790
H          1.65710       -0.72540        4.59860
H          1.95820       -2.47400        4.01220
F          5.76900       -0.03220        2.46810
F          5.28040        2.01780        3.27200
H          5.11420        0.31710        4.36000
