17
TSA8_9_F_F_CHF2
C          3.17920        0.72210        1.61930
C          1.62830        0.75980        1.53310
F          3.66230       -0.42210        1.00420
H          3.59510        1.59640        1.07300
F          1.22040        2.08020        1.60550
C          3.56970        0.73280        3.10330
C          2.97150       -0.50700        3.80330
C          1.71440       -1.02000        3.07550
O          0.94620        0.05040        2.57120
C          5.08410        0.83800        3.33690
H          3.09660        1.63380        3.55430
H          3.67670       -1.36500        3.86150
H          1.10850       -1.62470        3.78120
H          1.98340       -1.70520        2.24000
F          5.74650       -0.24750        2.79020
F          5.57340        1.99980        2.76670
H          5.29060        0.87020        4.42800
