26
TSA8_9_Et_CH2F_Me
C          2.52900        1.53900       -0.08160
C          1.37640        1.24360       -1.02630
C          2.52690        0.42970        1.01060
H          3.46630        1.43650       -0.67370
C          1.65120        0.90140       -2.46270
C          2.43370        3.03180        0.37960
C          1.30320        3.26070        1.35860
C          0.26420        4.05110        1.07110
O          0.22300        1.27810       -0.62110
C          3.74110        3.60300        0.94840
H          2.26160        3.63030       -0.54570
H          1.33640        2.77240        2.32810
H          0.19150        4.55970        0.11490
H         -0.52670        4.19220        1.80050
C          3.70340        0.42790        1.98060
H          2.56720       -0.54710        0.47790
H          1.58120        0.45060        1.59430
H          4.66640        0.42750        1.42750
H          3.65350       -0.48980        2.60430
H          3.64790        1.27450        2.68430
F          0.47120        0.66680       -3.14740
H          2.28330       -0.00940       -2.51180
H          2.18790        1.74370       -2.94750
H          4.56790        3.46110        0.22060
H          4.03710        3.16830        1.91350
H          3.62150        4.69510        1.11760
