21
TSA8_9_CHF2_CH2F_OH
C          2.02090        0.21340        0.07360
C          1.63860        1.41620       -0.46060
C          1.84150       -0.45020        1.42210
H          2.57020       -0.44760       -0.59200
C          2.00110        1.68510       -1.90000
C          2.18510        4.26380        2.71180
C          1.91480        3.05170        2.20160
C          0.64950        2.78550        1.42530
O          0.95190        2.44480        0.12560
O          3.32920        4.49790        3.39310
H          1.48550        5.08270        2.58100
H          2.62940        2.24700        2.33950
H          0.03690        3.71120        1.38500
H         -0.01400        2.04240        1.89430
F          3.08750       -0.72910        1.95130
F          1.11930        0.23870        2.35750
H          1.31390       -1.41220        1.25250
F          0.84780        1.90250       -2.63270
H          2.56610        0.85530       -2.37570
H          2.63370        2.59570       -1.94620
H          3.99920        3.81400        3.53480
