21
TSA8_9_CHF2_CH2F_OH
C          2.42220        1.44620        0.72230
C          1.21990        1.77600       -0.22070
C          2.19340        0.07430        1.38970
H          3.36410        1.35600        0.13470
C          1.61750        1.77540       -1.69400
C          2.61660        2.61410        1.71470
C          1.30430        2.98610        2.42240
C          0.11820        2.90840        1.44390
O          0.57590        3.00200        0.10960
O          3.63930        2.35190        2.63840
H          2.90340        3.48880        1.08300
H          1.07880        2.36870        3.31850
H         -0.59620        3.72690        1.66670
H         -0.45810        1.96420        1.58690
F          3.27780       -0.27090        2.17610
F          1.05050        0.05900        2.16700
H          2.08510       -0.70030        0.60030
F          0.49940        1.98340       -2.47970
H          2.06800        0.79760       -1.96410
H          2.35490        2.58360       -1.88830
H          3.95450        3.23200        2.97320
