22
TSA8_9_CN_CN_Et
C          1.69710        0.05380        0.04190
C          1.52190        0.81200        1.14670
C          1.81900       -1.37450       -0.03100
H          1.59520        0.54970       -0.91470
C          1.37400        2.22340        0.98800
C          3.95680       -1.89080        2.70060
C          3.31830       -0.77300        3.06620
C          1.81860       -0.73420        3.10010
O          1.40100        0.40000        2.44250
C          5.45340       -1.99160        2.58760
H          3.37840       -2.77530        2.46230
H          3.87750        0.12320        3.34130
H          1.50620       -0.64470        4.16760
H          1.35100       -1.65820        2.69120
N          1.91830       -2.52090       -0.13830
N          1.24120        3.37010        0.98000
C          5.79560       -2.44660        1.17170
H          5.84760       -2.74090        3.31080
H          5.94240       -1.01560        2.79960
H          5.34820       -1.75340        0.42820
H          6.89440       -2.47340        1.02170
H          5.38740       -3.46660        0.99480
