21
TSA8_9_OMe_NH2_CN
C          1.55780       -0.00590        0.05220
C          1.26230       -0.22900        1.48040
O          1.66440       -0.99270       -0.84120
H          1.47300        1.00560       -0.29920
N          1.01530        0.90660        2.29390
C          1.74830       -4.63350        1.41230
C          1.55710       -3.40700        0.92490
C          0.53660       -2.47200        1.51140
O          1.18220       -1.44490        2.16750
C          2.82340       -5.43930        0.89450
H          1.13650       -5.01320        2.22200
H          2.20550       -3.06970        0.12250
H         -0.08210       -2.97950        2.25590
H         -0.18100       -2.09670        0.74390
C          0.82870       -1.18330       -1.94040
H          1.35590       -1.81860       -2.67670
H          0.56770       -0.22860       -2.45370
H         -0.09150       -1.73510       -1.63240
H          1.41180        0.83360        3.25880
H         -0.01000        0.87620        2.35080
N          3.69440       -6.06000        0.45360
