24
TSA8_9_CN_CF3_Et
C          3.05420       -1.09160        0.71410
C          1.81580       -0.45360        1.45450
C          2.44360       -1.42700       -0.58790
H          3.85210       -0.34110        0.50980
C          1.84630        0.93190        2.11410
C          3.58850       -2.44580        1.37470
C          2.77010       -2.71620        2.62150
C          1.29950       -2.63520        2.26660
O          0.85070       -1.31320        2.04870
C          5.07100       -2.73810        1.79190
H          3.35470       -3.28110        0.67550
H          3.01770       -1.99960        3.43910
H          0.74060       -3.06430        3.11870
H          1.08530       -3.25000        1.36480
N          1.92790       -1.71970       -1.58210
F          2.60830        0.91600        3.26340
F          2.33990        1.87580        1.23350
F          0.54840        1.29660        2.44540
C          6.11650       -2.97820        0.69790
H          5.03990       -3.73270        2.30530
H          5.45190       -2.00800        2.53510
H          5.79060       -3.78060       -0.00020
H          7.05040       -3.35230        1.18740
H          6.36420       -2.05520        0.14450
