16
TSA8_9_CN_CN_F
C          2.19650        0.50160        1.48320
C          2.41330        1.89750        0.94020
C          2.66860       -0.63150        0.66760
H          1.10520        0.44180        1.33950
C          1.86510        2.22820       -0.35520
C          2.53620        0.30430        2.98560
C          1.43450       -0.52420        3.58470
C          0.18560       -0.02910        3.58780
O          2.67350        2.81770        1.70040
F          3.77270       -0.30570        3.15380
H          2.55290        1.25950        3.55140
H          1.63340       -1.51230        3.98160
H         -0.01070        0.96700        3.18450
H         -0.64850       -0.60150        3.96050
N          3.00030       -1.56750        0.07110
N          1.38580        2.49810       -1.37350
