16
TSA8_9_CN_CN_F
C          2.61710        0.37130        1.45680
C          1.37260        1.25240        1.16780
C          2.28670       -0.99520        1.01380
H          3.50480        0.70470        0.87700
C          1.52480        2.22330        0.07490
C          2.88110        0.38520        2.99190
C          1.59170       -0.01400        3.70890
C          0.42850        0.87460        3.20400
O          0.88310        1.89030        2.32820
F          3.92590       -0.44120        3.36940
H          3.12770        1.41590        3.34010
H          1.36800       -1.08710        3.49970
H         -0.02500        1.35680        4.08950
H         -0.36750        0.27070        2.70760
N          1.99660       -2.06840        0.69110
N          1.60730        2.99690       -0.78250
