17
TSA8_9_CH2F_H_Cl
C          1.66630        1.11310        1.69440
C          1.22050        1.56150        0.29110
C          1.28180       -0.36160        1.92040
H          2.77400        1.17950        1.76630
H          1.64230        2.55320        0.00900
C          1.03950        2.08640        2.71870
C         -0.47440        2.17990        2.51190
C         -0.75040        2.52890        1.04270
O         -0.19320        1.55570        0.17350
Cl         1.42290        1.65250        4.40830
H          1.46350        3.09920        2.53930
H         -0.96740        1.21810        2.76640
H         -0.36770        3.54560        0.79620
H         -1.84890        2.55860        0.88820
F          1.90780       -1.15840        0.97790
H          0.18690       -0.51980        1.83970
H          1.61220       -0.69670        2.92520
