20
TSA8_9_CHF2_NH2_CN
C          1.96420        1.26070       -1.34840
C          2.03640        0.06280       -2.29670
C          2.30730        1.23480        0.19010
H          0.88900        1.14060       -1.22230
N          2.41280       -1.18130       -1.93250
C          2.07530        2.64880       -2.10860
C          1.06970        3.57790       -1.47660
C         -0.23520        3.25460       -1.55650
O          1.56000        0.20340       -3.41620
C          3.41270        3.27850       -2.28360
H          1.73280        2.53990       -3.15970
H          1.38030        4.44790       -0.90870
H         -0.55310        2.37680       -2.12530
H         -0.99740        3.82170       -1.05050
F          3.61980        0.94620        0.50200
F          1.97760        2.44410        0.78980
H          1.65940        0.48240        0.69780
H          2.27470       -1.95020       -2.61210
H          2.77870       -1.40090       -1.00020
N          4.40450        3.83740       -2.46400
