20
TSA8_9_CHF2_NH2_CN
C          2.29930        1.21470       -1.17730
C          1.09070        0.31750       -1.61410
C          2.21840        1.50380        0.34340
H          3.23260        0.62240       -1.31260
N          1.56010       -0.92300       -2.22890
C          2.33480        2.44450       -2.12120
C          0.99580        3.20160       -2.09600
C         -0.17940        2.21500       -1.97770
O          0.18410        0.95970       -2.50760
C          3.47490        3.35560       -1.96720
H          2.42740        2.02860       -3.14770
H          0.90210        3.96330       -1.29010
H         -1.05380        2.62340       -2.52440
H         -0.51080        2.09530       -0.92010
F          3.47430        1.78840        0.84710
F          1.36590        2.54470        0.65580
H          1.85590        0.59230        0.86980
H          2.15400       -0.69490       -3.06050
H          2.14390       -1.44790       -1.53740
N          4.35990        4.09600       -1.87900
