23
TSA8_9_Me_CCl3_CF3
C          2.49420       -1.65080       -0.31440
C          1.49290       -1.21160        0.74400
C          2.64750       -0.53200       -1.36050
H          3.48150       -1.76920        0.18310
C          1.91750       -1.03700        2.18700
C          2.10050       -3.04630       -0.90130
C          0.78120       -3.00740       -1.64820
C         -0.28370       -3.70670       -1.24340
O          0.33390       -0.99050        0.42070
C          3.18500       -3.66060       -1.81260
H          2.01360       -3.73450       -0.02920
H          0.69360       -2.39890       -2.54310
H         -0.24380       -4.33060       -0.35610
H         -1.21030       -3.65540       -1.80600
H          1.69590       -0.35080       -1.90230
H          3.44560       -0.76590       -2.09020
H          2.94170        0.41320       -0.85600
Cl         2.54030       -2.57850        2.82910
Cl         3.19700        0.19880        2.30180
Cl         0.55630       -0.51840        3.22230
F          4.39450       -3.71660       -1.14290
F          2.81940       -4.95120       -2.15480
F          3.34610       -2.93590       -2.97930
