23
TSA8_9_Me_CCl3_CF3
C          1.99100       -0.10910        0.03010
C          1.57180       -1.07340        0.90790
C          1.83190        0.00030       -1.46390
H          2.52310        0.74890        0.41660
C          1.84030       -0.93000        2.40430
C          2.03870       -4.66170       -1.50840
C          1.84050       -3.35650       -1.26750
C          0.58640       -2.85460       -0.59320
O          0.88990       -2.22120        0.59370
C          3.29030       -5.14740       -2.17890
H          1.28610       -5.39070       -1.21990
H          2.60510       -2.64690       -1.56470
H         -0.07080       -3.71620       -0.34840
H         -0.02880       -2.20540       -1.24200
H          1.29280       -0.80080       -1.97120
H          2.84040        0.05920       -1.92350
H          1.29030        0.94200       -1.69140
Cl         2.79780       -2.33080        2.94820
Cl         2.71660        0.54290        2.93010
Cl         0.28430       -0.94830        3.27260
F          4.39340       -4.80810       -1.41690
F          3.24160       -6.52250       -2.31460
F          3.40470       -4.57460       -3.43270
