23
TSA8_9_Me_CCl3_CF3
C          2.41590       -1.85770       -0.27490
C          1.22360       -1.57820        0.70620
C          2.39050       -0.80780       -1.39650
H          3.38610       -1.73640        0.25490
C          1.65110       -1.20600        2.13710
C          2.31890       -3.32470       -0.77550
C          0.92640       -3.61170       -1.37090
C         -0.16990       -2.87800       -0.58240
O          0.26690       -2.63410        0.73700
C          3.44930       -3.78930       -1.71230
H          2.39990       -3.94860        0.14360
H          0.82370       -3.34360       -2.44480
H         -1.09540       -3.48950       -0.57880
H         -0.44650       -1.91830       -1.07940
H          1.46400       -0.87710       -2.00190
H          3.26720       -0.91930       -2.06430
H          2.44510        0.21090       -0.95730
Cl         2.50580       -2.56180        2.92280
Cl         2.70890        0.23100        2.13450
Cl         0.20900       -0.80930        3.10630
F          4.67830       -3.55430       -1.12270
F          3.32580       -5.14810       -1.94300
F          3.39760       -3.13590       -2.93020
