17
TSA8_9_NO2_H_CN
C          1.62790       -0.00210        0.09950
C          1.52740       -0.38710        1.41150
N          1.69360       -0.75150       -1.12710
H          1.60970        1.06860       -0.05510
H          1.52960        0.41930        2.14260
C          1.62080       -4.97830        1.55940
C          1.65560       -3.75390        1.03050
C          0.70040       -2.67590        1.43990
O          1.44160       -1.63560        1.94100
C          2.66510       -5.90590        1.21020
H          0.84840       -5.26110        2.26800
H          2.43720       -3.50800        0.31590
H         -0.00600       -3.02900        2.22380
H          0.06200       -2.31940        0.61760
O          2.13480       -0.19230       -2.08390
O          1.29190       -1.99460       -1.26830
N          3.52120       -6.62350        0.90700
