17
TSA8_9_NO2_H_CN
C          2.48260       -1.84630        0.63280
C          1.36680       -0.97800        1.26530
N          2.39790       -1.73260       -0.81540
H          3.47860       -1.47950        0.97360
H          1.77950       -0.06920        1.75240
C          2.32530       -3.29930        1.14210
C          0.89320       -3.79590        0.94180
C         -0.11260       -2.72440        1.40840
O          0.53080       -1.70370        2.15330
C          3.30320       -4.25420        0.60570
H          2.49420       -3.26800        2.24190
H          0.66900       -4.08780       -0.10830
H         -0.87360       -3.22460        2.04100
H         -0.66380       -2.28580        0.54380
O          3.31280       -1.27590       -1.43170
O          1.28360       -2.03190       -1.44960
N          4.06130       -5.02970        0.20160
