23
TSA8_9_CHF2_Me_CF3
C          2.39770       -0.91820       -2.22960
C          0.91400       -0.54390       -1.89180
C          3.34460       -0.14220       -1.28720
H          2.56820       -1.99490       -2.00230
C          0.12590       -1.74310       -1.37080
C          2.62380       -0.71870       -3.75630
C          2.19070        0.68950       -4.20750
C          0.93780        1.15140       -3.44680
O          0.21110        0.03310       -2.98750
C          4.01480       -1.08930       -4.30130
H          1.90920       -1.42690       -4.23520
H          2.97570        1.46970       -4.10900
H          0.30980        1.77360       -4.11650
H          1.20290        1.81430       -2.59100
F          4.64660       -0.58870       -1.41020
F          3.30640        1.22060       -1.51050
H          3.03900       -0.33150       -0.23580
H          0.05720       -2.52490       -2.15810
H         -0.89910       -1.42370       -1.08980
H          0.62350       -2.16780       -0.47420
F          4.35550       -2.36860       -3.89960
F          3.98750       -1.05680       -5.68450
F          4.98020       -0.20000       -3.86870
