20
TSA8_9_CF3_F_CCl3
C          2.26010        1.47400        1.44720
C          1.00460        2.19930        1.02430
C          2.05420       -0.03850        1.16680
H          3.08840        1.81710        0.78970
F          1.05680        3.10470        0.01250
C          2.63990        1.78310        2.94340
C          3.86730        0.97760        3.33390
C          3.83390        0.06000        4.30640
O         -0.06190        1.97770        1.57750
C          2.92910        3.29360        3.24730
H          1.78600        1.47250        3.58730
H          4.80320        1.14750        2.80920
H          2.92080       -0.14380        4.85700
H          4.73070       -0.49670        4.55710
F          3.22340       -0.75040        1.36360
F          1.07000       -0.55900        1.98980
F          1.67480       -0.22200       -0.15250
Cl         3.41540        3.50030        4.95700
Cl         4.24690        3.94060        2.22540
Cl         1.50290        4.34820        3.04000
