20
TSA8_9_CF3_F_CCl3
C          2.06580        1.71710        1.50820
C          0.86580        0.81380        1.86170
C          3.05930        0.91360        0.63380
H          1.68490        2.53490        0.85800
F         -0.22710        1.54080        2.31390
C          2.59740        2.33870        2.84600
C          2.84890        1.22930        3.88360
C          1.59600        0.35770        4.02070
O          1.22260       -0.21020        2.77670
C          3.79450        3.32870        2.76580
H          1.74700        2.94460        3.23570
H          3.71330        0.59760        3.59740
H          0.75560        0.93740        4.46420
H          1.81810       -0.46340        4.73390
F          4.04250        1.73710        0.12440
F          3.64400       -0.12690        1.33060
F          2.37980        0.37960       -0.44810
Cl         3.98480        4.14610        4.34310
Cl         5.36600        2.55150        2.41430
Cl         3.48930        4.60330        1.55390
