18
TSA8_9_CN_CH2F_H
C          2.30570        1.50540       -0.36720
C          1.44790        1.32720       -1.62410
C          1.94800        0.70470        0.83850
H          3.31000        1.14540       -0.66890
C          1.27210        0.01510       -2.32860
C          2.39040        3.00190        0.06310
C          1.22300        3.35750        0.95830
C         -0.03600        3.42150        0.52190
O          1.00300        2.30800       -2.19810
H          3.31420        3.13910        0.66500
H          2.48140        3.69930       -0.80140
H          1.42110        3.48580        2.01900
H         -0.28200        3.29760       -0.52020
H         -0.84330        3.58980        1.22190
N          1.65930        0.17050        1.81850
F         -0.07180       -0.20130       -2.57840
H          1.69620       -0.83880       -1.76690
H          1.79480        0.09050       -3.30830
