18
TSA8_9_CN_CH2F_H
C          2.40180        1.50220       -0.21720
C          1.13040        1.21910       -1.07890
C          2.15030        0.95990        1.13350
H          3.27760        0.95130       -0.61360
C          1.27620        0.24620       -2.26910
C          2.60660        3.05000       -0.12420
C          1.33280        3.65550        0.45210
C          0.11450        3.13980       -0.35240
O          0.50850        2.41680       -1.50430
H          3.48400        3.37650        0.47550
H          2.72820        3.50680       -1.13480
H          1.24560        3.38150        1.53330
H         -0.44210        4.03340       -0.68430
H         -0.57350        2.51880        0.26690
N          1.92040        0.56220        2.19660
F          0.02480        0.02810       -2.82170
H          1.67900       -0.73790       -1.94970
H          1.93480        0.65010       -3.07030
