18
TSA8_9_Cl_CN_CHF2
C          1.69380        0.00470       -0.08610
C          1.49800        0.19780       -1.42310
Cl         1.75660        1.15810        1.24410
H          1.58800       -1.01590        0.30810
C          1.41430       -0.96950       -2.23130
C          2.67900        4.42480       -1.94180
C          2.37100        3.29240       -1.29180
C          1.04590        2.61570       -1.50270
O          1.24250        1.37500       -2.06730
C          3.97170        5.15360       -1.71150
H          1.97700        4.85040       -2.65270
H          3.08730        2.86530       -0.59470
H          0.40520        3.23030       -2.17070
H          0.47180        2.53920       -0.55750
N          1.34400       -1.90640       -2.89950
F          4.05210        5.56100       -0.39210
F          5.05000        4.34210       -2.01100
H          4.00850        6.05480       -2.36100
