20
TSA8_9_CH2F_CN_NH2
C          1.43220       -0.76170       -1.61840
C          2.32930       -1.76930       -0.93650
C          2.02640        0.65560       -1.48990
H          0.47190       -0.75790       -1.05570
C          1.87490       -2.43820        0.26080
C          1.11390       -1.18920       -3.08550
C         -0.08780       -0.45070       -3.64180
C         -1.30680       -0.61240       -3.11170
O          3.46210       -1.98160       -1.34980
N          2.27550       -1.01690       -3.96620
H          0.84190       -2.26920       -3.08570
H          0.02250        0.20220       -4.50270
H         -1.46640       -1.27790       -2.26750
H         -2.16060       -0.09150       -3.52990
F          3.30120        0.73090       -2.02770
H          2.10170        0.92590       -0.41520
H          1.37300        1.40070       -1.98920
N          1.50540       -2.97140        1.21370
H          2.45300        0.00010       -4.13500
H          2.06220       -1.44140       -4.89840
