20
TSA8_9_CH2F_CN_NH2
C          2.06720       -0.74740       -1.98660
C          1.12460       -1.47310       -0.98440
C          1.95110        0.76560       -1.72080
H          3.13170       -1.06210       -1.89360
C          1.65010       -1.89970        0.31750
C          1.62400       -1.16470       -3.41400
C          0.10480       -1.01750       -3.58900
C         -0.63230       -1.65660       -2.38880
O          0.25640       -2.41430       -1.58270
N          2.37670       -0.49220       -4.47550
H          1.84800       -2.25410       -3.49670
H         -0.20620        0.04630       -3.68580
H         -1.44540       -2.30350       -2.77430
H         -1.13450       -0.87160       -1.77310
F          2.65600        1.09680       -0.57780
H          0.88550        1.05930       -1.58780
H          2.36670        1.36410       -2.55400
N          2.02970       -2.24370        1.35550
H          2.05010        0.49300       -4.59390
H          2.20340       -0.99030       -5.37940
