20
TSA8_9_CN_CH2F_NO2
C          2.63610       -1.36210       -1.17770
C          1.79680       -2.21750       -0.19390
C          2.14820        0.04290       -1.31040
H          3.65810       -1.31680       -0.71770
C          1.63060       -1.94560        1.27910
C          2.66930       -2.03750       -2.60460
C          1.55010       -1.45670       -3.44300
C          0.27920       -1.75390       -3.18550
O          1.29210       -3.26010       -0.57460
N          3.93780       -1.96580       -3.31970
H          2.51070       -3.13340       -2.49490
H          1.77220       -0.65600       -4.14560
H          0.02720       -2.50770       -2.45520
H         -0.51380       -1.22050       -3.68890
N          1.72000        1.11740       -1.37580
F          0.28380       -1.99010        1.60850
H          2.07000       -0.98750        1.60790
H          2.13470       -2.77780        1.81990
O          4.31350       -0.94660       -3.81260
O          4.56250       -3.09110       -3.61720
