20
TSA8_9_CN_CH2F_NO2
C          2.74110       -1.13820       -1.21770
C          1.45130       -1.59480       -0.43780
C          2.47690        0.25200       -1.65210
H          3.62880       -1.11560       -0.54740
C          1.63380       -2.04970        1.01670
C          2.89920       -2.12610       -2.42780
C          1.64380       -2.04660       -3.30190
C          0.38840       -2.05950       -2.42340
O          0.69040       -2.57020       -1.14340
N          4.08120       -2.03280       -3.26810
H          2.92880       -3.14090       -1.97240
H          1.63240       -1.11590       -3.91840
H         -0.36390       -2.69940       -2.92160
H         -0.05480       -1.04090       -2.32900
N          2.24250        1.32900       -2.00960
F          0.39600       -2.40110        1.53070
H          2.04110       -1.22880        1.64080
H          2.30060       -2.93340        1.08940
O          4.30860       -1.03530       -3.88250
O          4.62400       -3.16250       -3.68000
