21
TSA8_9_CN_Me_CCl3
C          2.81320       -1.10670       -1.37150
C          1.63740       -1.72490       -0.61270
C          2.66420        0.36080       -1.19500
H          3.74770       -1.42030       -0.86510
C          1.81740       -2.40940        0.71480
C          2.76570       -1.57980       -2.88700
C          2.02370       -0.53700       -3.70460
C          0.72610       -0.60520       -3.97010
O          0.50280       -1.63340       -1.06170
C          4.08080       -1.97990       -3.63200
H          2.20720       -2.54030       -2.86090
H          2.56260        0.35570       -4.01550
H          0.13120       -1.44090       -3.62750
H          0.25920        0.21760       -4.49980
N          2.50330        1.48580       -1.08210
H          2.52550       -3.25770        0.63460
H          0.84110       -2.79080        1.08720
H          2.19790       -1.67040        1.45150
Cl         3.62640       -2.86120       -5.12710
Cl         5.10990       -0.60390       -4.12510
Cl         5.08630       -3.10020       -2.67690
