21
TSA8_9_CN_Me_CCl3
C          2.85790       -1.05620       -1.48200
C          1.45730       -1.39870       -0.87440
C          2.87790        0.42060       -1.55780
H          3.67610       -1.36860       -0.79170
C          1.57070       -2.38860        0.28490
C          2.93690       -1.79400       -2.85860
C          1.84900       -1.19320       -3.75250
C          0.51390       -1.12770       -3.00810
O          0.53130       -1.91860       -1.83190
C          4.25210       -1.98230       -3.66110
H          2.65730       -2.84670       -2.62830
H          2.12770       -0.16730       -4.09840
H         -0.23470       -1.54100       -3.71300
H          0.21270       -0.08120       -2.77670
N          2.88570        1.57830       -1.56560
H          2.06980       -3.32630       -0.04200
H          0.55590       -2.63260        0.66620
H          2.15100       -1.93260        1.11590
Cl         3.88280       -3.02380       -5.07900
Cl         4.97020       -0.47170       -4.27350
Cl         5.47160       -2.86250       -2.70550
