22
TSA8_9_CBr3_CN_OMe
C          2.57170       -1.28760        0.71860
C          1.17430       -0.92060        1.33210
C          2.55510       -1.14490       -0.84150
H          3.32520       -0.54320        1.05390
C          1.31820        0.26860        2.18660
C          3.02430       -2.61980        1.36120
C          1.97450       -3.74240        1.16950
C          0.55200       -3.15710        1.38380
O          0.60600       -1.95660        2.12780
O          4.41380       -2.87360        1.18970
H          2.95510       -2.44160        2.45880
H          1.99370       -4.28440        0.20030
H         -0.07860       -3.90300        1.91100
H          0.01250       -2.97040        0.43030
Br         1.97110        0.65050       -1.31330
Br         4.32690       -1.32230       -1.60760
Br         1.38630       -2.35350       -1.81610
N          1.44310        1.22210        2.82770
C          4.75110       -3.95010        0.35410
H          4.80750       -4.89370        0.93510
H          5.77110       -3.73900       -0.03560
H          4.09860       -4.03110       -0.53540
