20
TSA8_9_CF3_NO2_OH
C          1.90090        0.10440       -0.13570
C          1.53410        0.66430       -1.33570
C          1.86610        0.55090        1.31340
H          2.30820       -0.90020       -0.18430
N          1.69740       -0.12620       -2.52070
C          2.66430        4.81290       -0.85740
C          2.24950        3.60740       -0.43850
C          0.88920        3.06400       -0.80400
O          1.01360        1.91440       -1.55180
O          3.88740        5.28550       -0.52920
H          2.01910        5.43250       -1.47260
H          2.91460        3.00640        0.17210
H          0.35260        3.80600       -1.43280
H          0.22100        2.90760        0.05880
F          3.15920        0.54700        1.80120
F          1.32220        1.77940        1.56520
F          1.13090       -0.37690        2.02720
O          1.38870        0.32920       -3.58040
O          2.18280       -1.35010       -2.47380
H          4.51070        4.78160        0.01390
