17
TSA8_9_I_Br_CF3
C          1.78680       -0.09380       -0.17180
C          1.46950       -0.02190       -1.46970
I          2.02180        1.62720        1.04000
H          1.92180       -1.06170        0.29960
Br         1.24260       -1.63460       -2.47560
C          2.11540        0.93670       -4.93110
C          2.87500        1.19430       -3.85650
C          2.31180        1.89780       -2.65200
O          1.28310        1.17710       -2.07500
C          2.68100        0.24820       -6.13820
H          1.07000        1.23450       -4.93680
H          3.92230        0.90500       -3.84950
H          1.92360        2.88870       -2.96880
H          3.11700        2.06620       -1.90510
F          3.14410       -1.00750       -5.79000
F          1.69780        0.11560       -7.10120
F          3.72340        0.99370       -6.65900
