17
TSA8_9_H_CH2F_F
C          2.87860        2.54730        0.93060
C          1.41570        2.07200        0.94230
H          3.50210        1.81930        0.36530
H          2.96660        3.54620        0.45150
C          0.83000        2.02850       -0.46520
C          3.35700        2.63520        2.38180
C          3.12040        1.29630        3.08210
C          1.64590        0.90360        2.90870
O          1.32800        0.79010        1.53530
F          4.69850        2.96940        2.42810
H          2.77420        3.42130        2.91100
H          3.76140        0.51230        2.62210
H          0.97010        1.62910        3.41770
H          1.48410       -0.08160        3.39320
F         -0.49530        1.63950       -0.40440
H          1.39270        1.30800       -1.09660
H          0.88380        3.03660       -0.92750
