17
TSA8_9_CHF2_F_Br
C          1.74780       -1.17000        1.25110
C          1.10790        0.18820        1.07730
C          1.64660       -1.96700       -0.07090
H          2.82970       -0.99550        1.44270
F          1.87010        1.30840        1.17700
C          1.18260       -1.88440        2.51380
C         -0.28470       -2.23050        2.41910
C         -1.19010       -1.70250        3.24930
O         -0.08580        0.29650        0.84250
Br         2.17070       -3.50320        2.94190
H          1.35180       -1.20080        3.37620
H         -0.62150       -2.93440        1.66590
H         -0.90180       -0.99720        4.02260
H         -2.23570       -1.97690        3.15610
F          2.31570       -3.17310        0.01460
F          0.33300       -2.19910       -0.43640
H          2.12550       -1.37760       -0.88220
