17
TSA8_9_CHF2_F_Br
C          1.71820       -1.55170        1.45080
C          1.12480       -0.13400        1.56230
C          1.48380       -2.08090        0.01790
H          2.81750       -1.50180        1.61030
F          1.52480        0.51410        2.72220
C          1.08350       -2.40920        2.57400
C         -0.44210       -2.34420        2.49250
C         -0.87700       -0.87190        2.50540
O         -0.29030       -0.14470        1.43650
Br         1.69470       -4.25390        2.61180
H          1.38340       -1.97470        3.55280
H         -0.80710       -2.84010        1.56870
H         -0.64100       -0.39720        3.48410
H         -1.98070       -0.83460        2.39620
F          2.07800       -1.22440       -0.89280
F          2.04240       -3.33380       -0.14910
H          0.40290       -2.13830       -0.22350
