26
TSA8_9_Me_Et_Me
C          2.72210       -0.70770       -1.12550
C          1.38590       -1.34040       -0.78490
C          2.79400        0.70600       -0.52100
H          3.51740       -1.30840       -0.63370
C          1.31020       -2.57570        0.07680
C          2.98230       -0.75800       -2.66200
C          2.04630        0.14440       -3.44060
C          1.18070       -0.33050       -4.34070
O          0.34820       -0.83610       -1.19360
C          4.43170       -0.39240       -3.00730
H          2.84470       -1.81610       -2.98250
H          2.08110        1.21670       -3.27270
H          1.10970       -1.39260       -4.54750
H          0.53260        0.35410       -4.87940
H          2.00660        1.36680       -0.94020
H          3.78570        1.16740       -0.69920
H          2.64290        0.65000        0.57840
C          2.01690       -3.76660       -0.57060
H          0.24640       -2.85210        0.24480
H          1.77410       -2.36040        1.06310
H          1.55140       -4.00240       -1.55070
H          1.92650       -4.65420        0.09070
H          3.09660       -3.56060       -0.72250
H          4.66610        0.65720       -2.73700
H          4.60150       -0.51500       -4.09880
H          5.13270       -1.06950       -2.47350
