26
TSA8_9_Me_Et_Me
C          1.88990       -0.15860       -0.09130
C          1.45450       -1.25920       -0.77130
C          2.04370        1.26970       -0.53910
H          2.17030       -0.29330        0.94990
C          1.38760       -2.57330       -0.02620
C          3.50190       -1.33570       -3.66870
C          2.70890       -0.28320       -3.42200
C          1.24080       -0.47480       -3.14990
O          1.06190       -1.32930       -2.08030
C          4.96620       -1.16450       -3.92190
H          3.08480       -2.34010       -3.68040
H          3.12470        0.71950       -3.40940
H          0.78190       -0.94620       -4.04450
H          0.69320        0.47350       -3.00210
H          1.76270        1.49570       -1.56830
H          3.10390        1.57160       -0.41080
H          1.41570        1.91080        0.11400
C          2.29700       -3.60590       -0.68850
H          0.33990       -2.94270       -0.03970
H          1.69860       -2.46930        1.03640
H          1.98540       -3.78470       -1.74000
H          2.23700       -4.56710       -0.13680
H          3.35050       -3.25190       -0.67820
H          5.44860       -0.69300       -3.03940
H          5.12580       -0.52730       -4.81670
H          5.43270       -2.15660       -4.09700
