26
TSA8_9_Me_Et_Me
C          2.83150       -0.66270       -1.29140
C          1.39350       -1.26410       -1.14100
C          2.80670        0.82690       -0.90940
H          3.52960       -1.14950       -0.57460
C          1.31870       -2.44310       -0.15810
C          3.32660       -0.92530       -2.73360
C          2.32520       -0.37230       -3.76500
C          0.87690       -0.54290       -3.27520
O          0.78920       -1.62970       -2.38030
C          4.75090       -0.43550       -3.01290
H          3.33420       -2.03110       -2.85780
H          2.48060        0.69920       -4.01870
H          0.21060       -0.70430       -4.14710
H          0.50330        0.38440       -2.78280
H          2.14980        1.41900       -1.57670
H          3.82780        1.25860       -0.94740
H          2.43690        0.93790        0.13220
C          2.07060       -3.68080       -0.65240
H          0.25020       -2.71260       -0.01570
H          1.72660       -2.12890        0.82630
H          1.65530       -4.02560       -1.62290
H          1.96070       -4.49980        0.08890
H          3.15230       -3.46770       -0.77590
H          4.81690        0.67000       -2.94490
H          5.05890       -0.73890       -4.03620
H          5.45780       -0.88760       -2.28510
