17
TSA8_9_Cl_Br_CCl3
C          1.78470        0.12410       -0.10620
C          1.42270        1.28130       -0.67590
Cl         2.02750       -0.03560        1.62970
H          1.91230       -0.76220       -0.71990
Br         1.12050        1.34430       -2.56390
C          2.39220        4.70630       -1.40810
C          3.01680        3.84800       -0.58640
C          2.27790        3.17930        0.54100
O          1.23650        2.40790        0.05740
C          3.10850        5.39370       -2.54240
H          1.33670        4.91360       -1.25150
H          4.07230        3.63060       -0.72190
H          1.86600        3.96310        1.21000
H          2.97950        2.55450        1.13320
Cl         1.97910        6.46580       -3.40940
Cl         4.45560        6.38260       -1.92010
Cl         3.74310        4.19280       -3.69700
