17
TSA8_9_Cl_Br_CCl3
C          2.53980        1.97050       -1.16870
C          1.31550        1.50450       -0.32420
Cl         4.05450        1.49380       -0.33660
H          2.54480        1.41010       -2.12690
Br        -0.14030        1.01550       -1.51370
C          2.41010        3.49500       -1.40020
C          2.37780        4.22510       -0.03770
C          1.80070        3.33260        1.07500
O          0.79060        2.48780        0.57200
C          3.41210        4.13580       -2.40150
H          1.40220        3.63050       -1.85350
H          3.37360        4.57430        0.30920
H          1.39230        3.97760        1.88000
H          2.59090        2.71800        1.55920
Cl         2.98320        5.84850       -2.66940
Cl         5.11010        4.09060       -1.84750
Cl         3.32400        3.32100       -3.98740
