20
TSA8_9_I_CH2F_CCl3
C          3.27200       -0.26530       -2.59950
C          1.80350       -0.73570       -2.68870
I          3.65790        0.64750       -0.67600
H          3.96600       -1.13040       -2.64740
C          1.48430       -1.87430       -1.72150
C          3.56630        0.74560       -3.75200
C          2.24760        1.29770       -4.34490
C          1.22180        1.51840       -3.22450
O          0.89500        0.34100       -2.48300
C          4.47480        0.15950       -4.86780
H          4.12670        1.60150       -3.31810
H          1.79240        0.56510       -5.04670
H          0.29240        1.91040       -3.68790
H          1.60910        2.29010       -2.52600
F          0.18470       -2.30010       -1.92350
H          1.59210       -1.54370       -0.66770
H          2.16910       -2.72810       -1.90660
Cl         4.77880        1.38240       -6.13450
Cl         6.06700       -0.30230       -4.20090
Cl         3.75430       -1.28470       -5.63840
