19
TSA8_9_NH2_F_CF3
C          2.07170       -1.15710       -2.05950
C          0.69690       -1.77980       -2.01500
N          2.07230        0.09010       -1.28840
H          2.78420       -1.86320       -1.57700
F          0.53040       -3.00790       -1.45800
C          2.55700       -0.88430       -3.51130
C          3.94190       -0.27180       -3.46010
C          4.19700        0.95300       -3.92980
O         -0.26930       -1.19020       -2.47320
C          2.61130       -2.16000       -4.38200
H          1.84870       -0.17330       -3.99490
H          4.75620       -0.84530       -3.02540
H          3.41390        1.56200       -4.37020
H          5.20370        1.35470       -3.87290
H          1.79090       -0.10600       -0.30010
H          1.39500        0.77300       -1.70150
F          3.45110       -3.10330       -3.81440
F          1.35190       -2.71250       -4.52930
F          3.08550       -1.84260       -5.64340
