19
TSA8_9_NH2_F_CF3
C          1.70640       -0.00770       -0.08010
C          1.39480       -1.02880       -0.90800
N          2.03940        1.30520       -0.50300
H          1.66220       -0.19520        0.98920
F          1.00810       -2.20020       -0.33850
C          2.86630       -1.29180       -5.32250
C          2.94750       -1.39600       -3.98620
C          2.36280       -0.36400       -3.06700
O          1.41570       -0.97700       -2.26860
C          3.44430       -2.32060       -6.25760
H          2.36520       -0.43570       -5.76620
H          3.44580       -2.24550       -3.52890
H          1.88030        0.45870       -3.63850
H          3.20340        0.04540       -2.46770
H          2.26050        2.01710        0.20780
H          1.98020        1.60990       -1.48190
F          4.05030       -3.36190       -5.57450
F          2.43130       -2.83500       -7.04440
F          4.38340       -1.71550       -7.07080
