23
TSA8_9_Me_Et_F
C          2.63480        1.10660       -0.13940
C          1.31470        1.57830       -0.72240
C          2.38740       -0.02510        0.86870
H          3.22830        0.67320       -0.97410
C          1.04330        1.47220       -2.20280
C          3.51840        2.23470        0.46530
C          2.99940        2.88530        1.72920
C          1.96340        3.72700        1.75980
O          0.42840        1.99040        0.00980
F          4.75150        1.67830        0.76680
H          3.70300        3.02150       -0.29790
H          3.52370        2.69050        2.66090
H          1.42660        4.00430        0.86100
H          1.65860        4.17140        2.70200
H          1.79780        0.34060        1.73630
H          3.35130       -0.43310        1.23940
H          1.82680       -0.85210        0.38220
C          1.99750        2.34040       -3.01840
H          0.00320        1.80180       -2.41760
H          1.14370        0.41130       -2.51690
H          1.89140        3.40720       -2.72610
H          1.75590        2.24120       -4.09780
H          3.05160        2.02660       -2.86970
