23
TSA8_9_Me_Et_F
C          2.72830        1.17920       -0.02520
C          1.33800        1.76210       -0.44620
C          2.55470        0.17360        1.12190
H          3.18770        0.61090       -0.86400
C          0.99440        1.52640       -1.92490
C          3.65990        2.34180        0.35480
C          3.02730        3.23810        1.42990
C          1.50550        3.34710        1.22910
O          1.17470        3.14350       -0.12720
F          4.90970        1.90140        0.75370
H          3.78790        2.96610       -0.55610
H          3.21810        2.88800        2.46710
H          1.16100        4.34610        1.56630
H          0.95970        2.61320        1.86590
H          2.10980        0.63860        2.02410
H          3.53870       -0.25870        1.40200
H          1.89280       -0.65660        0.79560
C          1.90330        2.30360       -2.87950
H         -0.05490        1.84900       -2.09600
H          1.05970        0.44050       -2.15020
H          1.82680        3.39450       -2.68670
H          1.59170        2.10830       -3.92700
H          2.96130        1.98900       -2.76780
