23
TSA8_9_OH_NH2_Et
C          1.66040        0.00900        0.28750
C          1.35070       -0.16000        1.59300
O          2.04810       -1.00730       -0.50730
H          1.57560        0.99790       -0.15360
N          0.91670        0.96850        2.33680
C          4.47260       -2.37640        1.06130
C          3.60320       -2.21630        2.06880
C          2.13270       -2.49230        1.92330
O          1.41500       -1.35620        2.24970
C          5.93910       -2.08410        1.23940
H          4.12590       -2.72200        0.09160
H          3.95520       -1.87200        3.03750
H          1.87100       -3.28710        2.65280
H          1.84950       -2.87630        0.92160
H          2.23480       -0.85710       -1.44380
H          0.68210        0.86590        3.33410
H          0.84700        1.90230        1.90500
C          6.38500       -0.99000        0.27720
H          6.51840       -3.01040        1.03990
H          6.15920       -1.75340        2.27860
H          6.21570       -1.30690       -0.77390
H          7.46800       -0.78920        0.41890
H          5.82020       -0.05320        0.47270
