23
TSA8_9_OH_NH2_Et
C          2.76180       -0.71450        0.37410
C          1.77320       -0.31830        1.48920
O          1.99670       -1.27010       -0.66620
H          3.25550        0.19980       -0.01880
N          2.42330        0.38280        2.59140
C          3.78240       -1.77460        0.89430
C          3.18360       -2.57220        2.07390
C          1.66170       -2.67920        1.93500
O          0.99770       -1.41460        1.97870
C          5.14630       -1.18710        1.32750
H          3.99200       -2.48440        0.06350
H          3.36600       -2.05010        3.04000
H          1.29210       -3.29100        2.78430
H          1.39940       -3.21290        0.99630
H          2.56020       -1.24100       -1.48390
H          1.68640        0.66470        3.27660
H          2.85390        1.25800        2.21890
C          5.94140       -0.58700        0.16390
H          5.76660       -2.01130        1.74480
H          5.00860       -0.42210        2.12130
H          6.11190       -1.35630       -0.61940
H          6.92890       -0.23970        0.53410
H          5.42660        0.28220       -0.28900
