21
TSA8_9_OH_CBr3_CF3
C          1.83110       -0.23940       -0.03040
C          1.55720       -1.36630       -0.73340
O          2.08550        0.93830       -0.63500
H          1.82860       -0.24430        1.05210
C          1.21300       -2.68180       -0.05520
C          2.33190       -2.47860       -4.67900
C          3.01710       -1.62030       -3.90920
C          2.31210       -0.66680       -2.99150
O          1.55100       -1.39970       -2.09850
C          3.03510       -3.44940       -5.58000
H          1.24500       -2.48180       -4.64840
H          4.10380       -1.61530       -3.93700
H          1.65050       -0.00000       -3.58440
H          3.08990       -0.06170       -2.48520
H          2.26750        1.73230       -0.11370
Br         1.19860       -2.68350        1.89460
Br        -0.54330       -3.25320       -0.64370
Br         2.49840       -4.01780       -0.61980
F          3.84190       -4.28410       -4.82780
F          2.10280       -4.21440       -6.25620
F          3.81060       -2.76540       -6.49790
