22
TSA8_9_CHF2_NH2_CH2F
C          2.04630       -0.19810       -0.07490
C          1.64320       -1.32330        0.59140
C          1.86050        0.33650       -1.47990
H          2.62990        0.50450        0.51540
N          2.01420       -1.42220        1.96030
C          1.97430       -4.41820       -2.40370
C          1.76420       -3.17030       -1.95850
C          0.54760       -2.81480       -1.13920
O          0.91890       -2.38270        0.11480
C          3.19170       -4.75960       -3.20770
H          1.26120       -5.20770       -2.18270
H          2.49320       -2.39990       -2.18740
H         -0.08150       -3.71970       -0.99970
H         -0.12270       -2.08910       -1.62830
F          3.10260        0.49820       -2.06370
F          1.07490       -0.39810       -2.32550
H          1.38550        1.33640       -1.39530
H          1.73700       -2.24970        2.50810
H          2.56110       -0.68680        2.43300
F          3.21100       -4.01880       -4.37540
H          3.17770       -5.83940       -3.46560
H          4.10740       -4.54440       -2.61750
