15
TSA8_9_CN_I_H
C          1.65770        0.06080       -0.00030
C          1.45790        1.29970        0.51230
C          1.82200       -1.18190        0.71110
H          1.61580       -0.04100       -1.08030
I          1.24670        2.88210       -0.85810
C          3.14500        0.66690        4.50900
C          2.66030        0.44300        3.29130
C          1.26250        0.82230        2.91910
O          1.30820        1.65280        1.82450
H          4.15910        0.37230        4.74310
H          2.53690        1.13050        5.27660
H          3.29760       -0.01920        2.54800
H          0.74290        1.34000        3.76290
H          0.63780       -0.06520        2.69130
N          1.95520       -2.19690        1.27670
