22
TSA8_9_OMe_NO2_NH2
C          0.86820        1.64530        0.04690
C          1.58850        0.80800       -1.00100
O          1.78940        2.05950        1.04250
H          0.01740        1.08680        0.50370
N          1.20840       -0.47010       -1.28000
C          0.24980        2.90290       -0.60370
C         -0.80220        2.51330       -1.62200
C         -0.69820        2.83830       -2.91340
O          2.53470        1.30360       -1.59960
N         -0.35310        3.75310        0.42430
H          1.06630        3.48420       -1.09070
H         -1.67040        1.95020       -1.29040
H          0.15320        3.39880       -3.28600
H         -1.47500        2.53910       -3.60980
C          2.00700        1.02400        1.97830
H          2.64010        1.42210        2.79740
H          2.55680        0.17640        1.51450
H          1.05880        0.68420        2.45150
O          1.79540       -1.10390       -2.10520
O          0.19790       -1.02640       -0.64690
H         -1.14300        3.25380        0.89410
H         -0.72220        4.62630       -0.01740
