22
TSA8_9_OMe_NO2_NH2
C          1.54350       -0.10660        0.08680
C          1.26860        0.34580       -1.14450
O          1.65630        0.77500        1.10990
H          1.64610       -1.17210        0.27910
N          1.10290       -0.55420       -2.24370
C         -0.50600        4.62620       -1.32750
C         -0.48770        3.31370       -1.06300
C          0.13520        2.31900       -1.99740
O          1.14720        1.68850       -1.30890
N         -1.06840        5.54240       -0.40460
H         -0.08010        5.00480       -2.25190
H         -0.91430        2.94460       -0.13390
H          0.55480        2.81480       -2.89870
H         -0.65030        1.59740       -2.31640
C          1.77090        0.38110        2.42150
H          1.83680        1.28270        3.06490
H          2.68390       -0.23430        2.56090
H          0.87220       -0.20130        2.71970
O          0.92320       -0.13180       -3.34580
O          1.21480       -1.85510       -2.07050
H         -1.45690        5.22260        0.49540
H         -1.06930        6.54920       -0.62010
