17
TSA8_9_OH_CN_OH
C          1.61930        0.06160       -0.05110
C          1.43040        1.39410       -0.21080
O          1.56590       -0.54990        1.14990
H          1.74020       -0.56500       -0.93060
C          1.32440        1.90090       -1.55900
C          2.80140        2.68800        3.79070
C          2.40530        1.88250        2.79470
C          1.05580        2.03620        2.15360
O          1.18460        2.28200        0.79990
O          4.01630        2.54300        4.36230
H          2.14380        3.47150        4.15680
H          3.06980        1.10150        2.43990
H          0.50580        2.88800        2.60770
H          0.41720        1.14670        2.32520
H          1.48330       -1.51340        1.20320
N          1.23540        2.32490       -2.63240
H          4.63780        1.85590        4.08200
