22
TSA8_9_Cl_OMe_OMe
C          2.74960       -1.03050        1.12210
C          2.08470        0.32800        1.12630
Cl         1.57890       -2.32680        0.70920
H          3.52350       -1.02460        0.32390
O          2.84350        1.42840        1.37140
C          3.44710       -1.30240        2.47550
C          2.45700       -1.20980        3.63940
C          2.57440       -0.28400        4.59660
O          0.88100        0.42930        0.92710
O          4.21780       -2.50440        2.39500
H          4.19500       -0.49020        2.61550
H          1.62330       -1.90370        3.69270
H          3.38470        0.43900        4.58620
H          1.84950       -0.24280        5.40270
C          2.36850        2.71910        1.50150
H          2.83220        3.35980        0.72410
H          2.65110        3.10760        2.50160
H          1.26300        2.77990        1.40240
C          3.68120       -3.60870        3.09460
H          4.30130       -4.49890        2.86430
H          2.64980       -3.84920        2.76380
H          3.73990       -3.44970        4.19300
