22
TSA8_9_Cl_OMe_OMe
C          1.52380        0.07160       -0.42070
C          1.80640        0.64840        0.75180
Cl         1.07570       -1.62780       -0.52720
H          1.57640        0.64930       -1.33850
O          2.13290        1.97220        0.75010
C          3.81330       -1.82480        4.24540
C          2.97010       -1.53340        3.23810
C          2.57910       -0.11280        2.95250
O          1.70600       -0.10040        1.88430
O          4.22750       -3.08150        4.57690
H          4.19600       -1.00660        4.84850
H          2.54800       -2.30150        2.60410
H          3.50770        0.44750        2.72470
H          2.07470        0.31700        3.84420
C          2.28960        2.79410        1.84640
H          2.42250        3.83630        1.49060
H          3.19700        2.53780        2.42260
H          1.38600        2.75380        2.49070
C          3.94290       -4.28740        3.95900
H          4.89500       -4.76500        3.64820
H          3.30360       -4.19850        3.06400
H          3.43470       -4.95480        4.68490
