19
TSA8_9_Br_CN_OMe
C          2.77460       -1.11740       -1.43130
C          1.83860       -2.13050       -0.78270
Br         2.42460        0.64920       -0.66580
H          3.79960       -1.40340       -1.11460
C          1.90100       -2.36070        0.63900
C          2.74050       -1.12320       -2.99690
C          1.86940       -0.03100       -3.62050
C          0.54960       -0.18430       -3.76170
O          1.10060       -2.84140       -1.44800
O          4.02320       -1.38820       -3.56240
H          2.22930       -2.05570       -3.30450
H          2.27070        0.93670       -3.89650
H          0.05770       -1.10400       -3.46570
H         -0.04930        0.62690       -4.16390
N          1.95800       -2.55130        1.77880
C          4.76330       -0.29450       -4.05810
H          4.91650       -0.45000       -5.14830
H          5.75860       -0.29190       -3.56910
H          4.33760        0.70570       -3.88610
