25
TSA8_9_NH2_Et_CCl3
C          1.86780       -0.19050        0.09950
C          1.42990       -1.43000       -0.26870
N          2.17210        0.90200       -0.75540
H          1.99320        0.00580        1.16090
C          1.13950       -2.43190        0.82690
C          3.69410       -2.15840       -3.84310
C          3.06110       -1.40390       -2.92960
C          1.55950       -1.42070       -2.78460
O          1.20730       -1.89370       -1.53760
C          5.19550       -2.15480       -3.97120
H          3.11390       -2.79500       -4.50590
H          3.64610       -0.77450       -2.26740
H          1.11920       -2.11110       -3.53530
H          1.09210       -0.44050       -2.98940
H          2.08360        0.89490       -1.77130
H          2.49220        1.78270       -0.32810
C          2.03580       -3.65940        0.68110
H          0.07500       -2.74240        0.75710
H          1.30260       -2.00450        1.84050
H          1.86990       -4.15170       -0.30100
H          1.80330       -4.38910        1.48500
H          3.10410       -3.36480        0.76390
Cl         5.69670       -3.26620       -5.27070
Cl         5.78460       -0.51960       -4.36960
Cl         5.94800       -2.69680       -2.44750
