21
TSA8_9_NO2_CCl3_NO2
C          2.53630       -1.87500        0.49620
C          1.37040       -1.16790        1.16750
N          2.87760       -1.19620       -0.74620
H          3.40910       -1.80990        1.18630
C          1.53870       -0.51890        2.52520
C          2.25420       -3.40020        0.29640
C          1.09790       -3.66640       -0.64640
C         -0.02530       -4.26700       -0.24190
O          0.28860       -1.11760        0.59930
N          3.42230       -4.12760       -0.18230
H          2.00750       -3.80600        1.30420
H          1.17980       -3.37730       -1.68850
H         -0.15680       -4.58240        0.78830
H         -0.82760       -4.44610       -0.95060
O          3.95170       -0.68920       -0.87000
O          1.99340       -1.06570       -1.71240
Cl         2.02910       -1.73820        3.72950
Cl         2.78880        0.74890        2.43920
Cl         0.02300        0.23850        3.09350
O          4.44800       -3.56800       -0.43020
O          3.36160       -5.43650       -0.30750
