20
TSA8_9_Me_NH2_OH
C          1.48530       -0.88340        1.63210
C          0.93060        0.51360        1.41180
C          1.19990       -1.75090        0.39540
H          2.59150       -0.79860        1.72160
N          1.74880        1.59190        1.44870
C          1.01100       -1.56890        2.94970
C         -0.48010       -1.82180        3.05840
C         -1.36850       -0.85140        3.29340
O         -0.25460        0.67370        1.16150
O          1.67990       -2.80100        3.05780
H          1.32560       -0.92560        3.80580
H         -0.84420       -2.84370        2.99830
H         -1.05970        0.18050        3.41820
H         -2.42200       -1.09220        3.38900
H          0.10710       -1.89130        0.25380
H          1.67630       -2.74870        0.49800
H          1.61850       -1.26700       -0.51330
H          1.37200        2.53740        1.28380
H          2.75500        1.49020        1.64290
H          1.66400       -3.05970        4.01690
