20
TSA8_9_Me_NH2_OH
C          1.91920       -0.02780        0.06400
C          1.28410        0.21810        1.22450
C          2.05300       -1.40020       -0.53460
H          2.35790        0.79790       -0.48890
N          1.19940        1.55940        1.70090
C         -0.10390       -2.47600        4.77980
C         -0.42650       -2.04880        3.54840
C         -0.03640       -0.68410        3.05960
O          0.73280       -0.81350        1.92220
O         -0.45790       -3.70650        5.21060
H          0.45010       -1.83180        5.45500
H         -0.98520       -2.69910        2.88050
H          0.53470       -0.13930        3.84280
H         -0.95920       -0.11440        2.81840
H          1.57480       -2.18710        0.08430
H          3.12940       -1.64600       -0.64830
H          1.57520       -1.40510       -1.53660
H          0.72250        1.78960        2.58180
H          1.62410        2.33400        1.16890
H         -0.94910       -4.32980        4.65570
