19
TSA8_9_CHF2_H_NO2
C          1.59430        0.98370        1.81360
C          1.17440        1.32490        0.40130
C          1.42930       -0.53740        2.03840
H          2.68460        1.19610        1.87860
H          1.90920        1.71020       -0.29800
C          0.88590        1.93740        2.83400
C         -0.62780        1.84300        2.80770
C         -1.39350        2.88030        2.45170
O          0.02360        1.16210        0.02540
N          1.35660        1.74530        4.19550
H          1.18100        2.96690        2.52150
H         -1.11310        0.91530        3.09130
H         -0.95590        3.83130        2.16360
H         -2.47390        2.78110        2.44640
F          2.01680       -0.94510        3.21990
F          0.10160       -0.92280        2.02090
H          1.95660       -1.07870        1.22310
O          1.07130        0.76310        4.81140
O          2.00970        2.71420        4.80170
