19
TSA8_9_CHF2_H_NO2
C          1.53600        1.07430        2.23010
C          1.33420        1.69810        0.83540
C          1.28100       -0.44700        2.14040
H          2.59920        1.20980        2.52670
H          1.70590        2.74680        0.77740
C          0.62700        1.86980        3.21360
C         -0.82050        1.89780        2.70220
C         -0.82830        2.41750        1.25850
O         -0.01930        1.60880        0.42060
N          0.68530        1.39820        4.58660
H          0.99660        2.92160        3.19900
H         -1.26740        0.88130        2.73180
H         -0.50260        3.48190        1.21640
H         -1.87150        2.39110        0.88080
F          2.08750       -0.99080        1.15530
F          1.59950       -1.07620        3.32800
H          0.22570       -0.66690        1.87900
O          0.21880        0.34300        4.89410
O          1.15410        2.19040        5.52670
