21
TSA8_9_CH2F_Cl_OMe
C          1.72890        0.16580        0.00000
C          1.37620        1.38230        0.49200
C          2.00970       -1.13380        0.70620
H          1.81610        0.09060       -1.08050
Cl         1.09580        2.64960       -0.69440
C          3.66850        1.61240        4.14360
C          3.00030        1.00740        3.14270
C          1.50460        1.14510        2.99100
O          1.19710        1.75840        1.79410
O          5.01730        1.52220        4.30740
H          3.11850        2.20870        4.86500
H          3.53810        0.41160        2.41650
H          1.10500        1.78780        3.80420
H          0.96810        0.18430        3.09380
F          3.29470       -1.54180        0.40230
H          1.29840       -1.89610        0.32580
H          1.90730       -1.12590        1.79370
C          5.88870        0.83260        3.48830
H          6.92100        0.94940        3.87700
H          5.85080        1.24270        2.45630
H          5.63350       -0.24860        3.47880
