21
TSA8_9_CH2F_Cl_OMe
C          2.65940        0.89010        0.92430
C          1.15240        1.27480        1.04410
C          2.77860       -0.63530        0.79850
H          3.08270        1.32750       -0.00750
Cl         0.61280        2.27170       -0.33320
C          3.43130        1.47640        2.12990
C          2.74810        1.11870        3.48410
C          1.21860        1.10080        3.32870
O          0.82750        1.93520        2.26020
O          4.84210        1.29160        2.01430
H          3.28150        2.57630        2.05040
H          3.02840        0.14430        3.93500
H          0.74400        1.43170        4.27520
H          0.85130        0.06040        3.15730
F          4.08860       -1.00500        0.55490
H          2.16700       -0.98360       -0.06130
H          2.41440       -1.14530        1.71440
C          5.38910        0.36440        2.92600
H          5.38870        0.77860        3.95780
H          6.44780        0.18960        2.64680
H          4.88530       -0.62300        2.87190
