19
TSA8_9_CH2F_CN_CN
C          1.56760       -0.06450       -0.04260
C          1.34160       -1.25090       -0.80970
C          1.68740        1.36870       -0.43850
H          1.49280       -0.17220        1.04210
C          1.29030       -2.50780       -0.09300
C          1.16390       -0.08600       -5.24830
C          1.37980        0.08740       -3.93330
C          0.43580       -0.44760       -2.90030
O          1.10400       -1.40630       -2.16650
C          2.23510        0.21810       -6.15600
H          0.24740       -0.53490       -5.60050
H          2.30660        0.55320       -3.61940
H         -0.43430       -0.93110       -3.36580
H          0.00230        0.34590       -2.25740
F          3.02590        1.49650       -0.20380
H          1.14880        2.11180        0.20300
H          1.47390        1.63920       -1.48680
N          1.25520       -3.50020        0.50440
N          3.11880        0.47500       -6.85500
