19
TSA8_9_CH2F_CN_CN
C          2.20680       -0.27670       -1.89170
C          0.99590       -1.06630       -1.29060
C          2.17530        1.14140       -1.25580
H          3.15660       -0.77520       -1.58530
C          1.38720       -2.18400       -0.42060
C          2.04590       -0.33460       -3.44610
C          0.67950        0.22500       -3.84810
C         -0.41660       -0.32070       -2.92180
O          0.03570       -1.47980       -2.25030
C          3.07670        0.22940       -4.32710
H          2.03880       -1.41580       -3.70650
H          0.64350        1.33920       -3.84070
H         -1.30150       -0.55960       -3.54270
H         -0.74030        0.45080       -2.18270
F          3.44220        1.55970       -0.89390
H          1.57370        1.12920       -0.31620
H          1.69770        1.90190       -1.90330
N          1.68600       -3.06560        0.26720
N          3.83660        0.63720       -5.10000
