17
TSA8_9_F_H_CCl3
C          3.09110        0.27560       -2.06920
C          1.67550        0.18960       -1.56440
F          3.95790        0.03990       -1.01560
H          3.21210       -0.54110       -2.81050
H          1.00620       -0.56310       -1.96870
C          3.39400        1.63760       -2.75510
C          3.28150        2.77160       -1.75220
C          2.38190        3.75140       -1.88670
O          1.27150        0.94010       -0.69040
C          4.78710        1.67290       -3.44930
H          2.63640        1.77360       -3.56100
H          3.95050        2.79210       -0.89670
H          1.69310        3.77150       -2.72520
H          2.33180        4.54530       -1.14870
Cl         5.01780        3.23570       -4.28510
Cl         6.14400        1.46440       -2.30250
Cl         4.91520        0.40240       -4.69870
