17
TSA8_9_F_H_CCl3
C          2.13540       -0.05420       -0.34820
C          1.32410        0.21480       -1.38520
F          2.99870        0.85330        0.17560
H          2.09450       -1.03870        0.10770
H          0.65610       -0.57330       -1.71610
C          3.95930        2.75910       -3.63690
C          3.46440        2.11590       -2.56640
C          2.12800        2.48020       -1.96960
O          1.25990        1.40560       -2.04740
C          5.28730        2.38900       -4.24560
H          3.38810        3.56820       -4.08460
H          4.03420        1.30690       -2.11940
H          1.67620        3.32150       -2.53660
H          2.23730        2.82330       -0.92100
Cl         5.62980        3.44240       -5.64080
Cl         6.59880        2.58630       -3.05420
Cl         5.25740        0.69770       -4.81330
