17
TSA8_9_H_Me_I
C          2.40980        0.69780        0.09270
C          1.50270        1.60630        0.50670
H          2.92200        0.03740        0.78210
H          2.65160        0.59260       -0.96080
C          0.81510        2.48770       -0.49270
C          2.98230        3.62900        3.12890
C          3.13030        2.30410        3.01560
C          1.92720        1.40780        2.91900
O          1.16720        1.76370        1.81840
I          4.65700        4.90510        3.25730
H          1.99150        4.07450        3.15490
H          4.12530        1.87010        2.99070
H          1.31570        1.54570        3.83480
H          2.22080        0.33750        2.87430
H          1.05080        3.54630       -0.25570
H         -0.28190        2.34520       -0.42810
H          1.14080        2.28090       -1.53510
