23
TSA8_9_Cl_Et_CBr3
C          2.32630        0.65080       -2.14740
C          1.10120       -0.12070       -2.56670
Cl         2.02500        1.21740       -0.47300
H          3.19990       -0.03450       -2.10290
C          1.20630       -1.59760       -2.87060
C          2.66360        1.85490       -3.08310
C          3.82520        2.62000       -2.47080
C          3.70390        3.88970       -2.06840
O          0.02370        0.45600       -2.63720
C          3.02860        1.47170       -4.55530
H          1.77320        2.52210       -3.12210
H          4.78450        2.12500       -2.34980
H          2.76410        4.42410       -2.16730
H          4.55410        4.40450       -1.63300
C         -0.13280       -2.22290       -3.26170
H          1.59350       -2.12060       -1.97000
H          1.92740       -1.74670       -3.70220
H         -0.86540       -2.11250       -2.43320
H          0.00660       -3.30460       -3.46970
H         -0.53500       -1.73400       -4.17460
Br         3.51270        3.06330       -5.56720
Br         4.53200        0.23880       -4.65360
Br         1.55090        0.69490       -5.55080
