24
TSA8_9_CH2F_OH_Et
C          2.90620       -0.90400        0.94670
C          1.56750       -0.40450        1.46380
C          2.85110       -0.82650       -0.59840
H          3.68030       -0.19490        1.31320
O          1.49450        0.71190        2.22280
C          3.20740       -2.30740        1.58010
C          2.42740       -3.42400        0.91250
C          1.49150       -4.12730        1.55450
O          0.54010       -1.00960        1.20000
C          4.70380       -2.69540        1.74570
H          2.88150       -2.21910        2.64420
H          2.63660       -3.66610       -0.12530
H          1.24730       -3.92510        2.59210
H          0.96120       -4.91880        1.03500
F          4.04300       -1.13530       -1.20520
H          2.59490        0.21290       -0.89970
H          2.06010       -1.49260       -1.00370
H          2.27930        1.22450        2.45920
C          5.51750       -3.03060        0.49720
H          4.72820       -3.60690        2.38350
H          5.22980       -1.89120        2.30580
H          5.03600       -3.84010       -0.08920
H          6.52000       -3.38770        0.81460
H          5.69990       -2.14180       -0.12370
