24
TSA8_9_CH2F_OH_Et
C          3.01560       -1.08930        1.01600
C          1.56430       -0.78100        1.51830
C          2.99280       -1.26400       -0.51420
H          3.63650       -0.18330        1.20460
O          1.58560        0.33220        2.36100
C          3.55740       -2.28170        1.85550
C          2.62380       -3.50540        1.73720
C          1.15980       -3.07260        1.55730
O          0.92550       -1.85050        2.21520
C          5.06470       -2.64490        1.78360
H          3.43730       -1.91130        2.90080
H          2.86080       -4.18790        0.89650
H          0.49540       -3.86210        1.96460
H          0.88360       -2.97970        0.48350
F          4.25970       -1.17620       -1.04630
H          2.42230       -0.42090       -0.96050
H          2.50980       -2.20860       -0.83200
H          1.05010        1.01520        1.88390
C          5.55630       -3.45560        0.57820
H          5.28810       -3.27720        2.67190
H          5.66510       -1.71530        1.87870
H          5.03830       -4.43330        0.51070
H          6.63830       -3.66660        0.71160
H          5.45140       -2.93040       -0.37890
