14
TSA8_9_Br_Cl_H
C          1.78680        0.10960       -0.09390
C          1.48260        1.35330       -0.48160
Br         1.99180       -0.35470        1.75360
H          1.91840       -0.67280       -0.83490
Cl         1.28590        1.70440       -2.19330
C          2.12240        4.87950       -0.89420
C          2.88590        4.00170       -0.23750
C          2.33000        3.15370        0.87370
O          1.30350        2.34100        0.42970
H          2.54860        5.48100       -1.69010
H          1.07320        5.00330       -0.64300
H          3.93280        3.90080       -0.50730
H          1.94130        3.82000        1.67240
H          3.13990        2.52910        1.30920
