20
TSA8_9_F_F_Et
C          3.31930        0.44960        1.77650
C          1.86020        0.53950        1.41610
F          4.00510       -0.09970        0.70700
H          3.68560        1.48620        1.94040
F          1.24910        1.75240        1.37460
C          3.55140       -0.36280        3.07570
C          3.15590       -1.81540        2.89970
C          2.18440       -2.37840        3.62470
O          1.22060       -0.46350        1.14180
C          5.00450       -0.25130        3.60310
H          2.91580        0.10310        3.86380
H          3.67070       -2.42280        2.16150
H          1.63980       -1.81170        4.37340
H          1.92790       -3.42120        3.46930
C          6.09360       -0.83220        2.69500
H          5.06010       -0.77840        4.58120
H          5.23900        0.81970        3.78790
H          5.92890       -1.91390        2.51480
H          7.07960       -0.71480        3.19210
H          6.14330       -0.29450        1.72820
