22
TSA8_9_NO2_CCl3_CHF2
C          2.29650       -2.16760       -0.31370
C          1.42600       -1.45440        0.78170
N          2.30160       -1.32370       -1.50410
H          3.34860       -2.27610        0.03030
C          2.17770       -1.08010        2.07060
C          1.73440       -3.60460       -0.52680
C          0.23380       -3.57180       -0.86830
C         -0.46250       -2.42480       -0.11900
O          0.22060       -2.15340        1.08710
C          2.53930       -4.52610       -1.46470
H          1.80120       -4.08600        0.47530
H          0.00530       -3.47770       -1.95140
H         -1.51740       -2.70110        0.08530
H         -0.50290       -1.50700       -0.75300
O          2.76950       -0.22760       -1.43930
O          1.75970       -1.71370       -2.63660
Cl         2.73910       -2.53600        2.93490
Cl         3.57850       -0.03480        1.71260
Cl         1.08940       -0.16500        3.14540
F          2.51700       -4.10370       -2.77870
F          3.85310       -4.60610       -1.03870
H          2.10170       -5.54680       -1.43090
