17
TSA8_9_CCl3_I_Cl
C          1.83530       -0.04510       -0.02980
C          1.15480       -1.02740       -0.65080
C          2.14030        1.34800       -0.54980
H          2.21350       -0.26170        0.96550
I          0.91370       -2.86240        0.40630
C         -0.14710       -1.87030       -5.04170
C         -0.49730       -1.25970       -3.90450
C         -0.10970       -1.80370       -2.56060
O          0.64000       -0.86040       -1.89440
Cl        -0.62140       -1.19750       -6.59260
H          0.43360       -2.78780       -5.02800
H         -1.07920       -0.34340       -3.94550
H          0.47730       -2.74230       -2.66790
H         -1.03640       -2.01960       -1.98600
Cl         1.53080        1.74460       -2.18350
Cl         1.44340        2.52940        0.58380
Cl         3.90640        1.56420       -0.56720
