20
TSA8_9_H_CHF2_CBr3
C          2.69850        2.87270        1.37850
C          1.42050        2.08130        1.04220
H          3.56950        2.37680        0.89720
H          2.61420        3.90780        0.98730
C          1.13110        2.07110       -0.45750
C          2.86050        2.89900        2.91390
C          2.80860        1.45340        3.44190
C          1.53480        0.77350        2.92340
O          1.53780        0.75260        1.51050
C          4.13390        3.64610        3.38760
H          1.98280        3.43780        3.33810
H          3.68890        0.87460        3.08760
H          0.61860        1.27140        3.31720
H          1.51700       -0.27240        3.29400
F         -0.03030        1.36040       -0.69780
F          0.96460        3.36430       -0.91880
H          1.96850        1.59120       -1.00760
Br         4.21640        3.66320        5.32890
Br         5.77700        2.83970        2.72530
Br         4.10590        5.50260        2.81440
