25
TSA8_9_Me_NH2_Et
C          3.08400        0.67620        1.21410
C          1.75070        1.29160        0.81930
C          3.06360       -0.80510        0.78610
H          3.88020        1.19480        0.63590
N          1.69720        2.29650       -0.08690
C          3.36070        0.94600        2.73120
C          2.47680        0.11200        3.63900
C          1.56640        0.66310        4.44770
O          0.71350        0.87870        1.31910
C          4.84650        0.85760        3.17710
H          3.12340        2.02500        2.88480
H          2.58350       -0.96810        3.64120
H          1.42190        1.73800        4.48410
H          0.95510        0.03080        5.08360
H          2.25930       -1.36380        1.30880
H          4.01450       -1.32450        0.96130
H          2.86650       -0.87060       -0.30600
H          0.79210        2.71180       -0.35330
H          2.55440        2.66400       -0.52470
C          5.52450       -0.51230        3.15330
H          4.89060        1.21800        4.22920
H          5.45430        1.55920        2.56470
H          4.95620       -1.25310        3.75220
H          6.53750       -0.41480        3.59810
H          5.68030       -0.87330        2.12420
