25
TSA8_9_Me_NH2_Et
C          1.75800        0.14660        0.02300
C          1.46410        1.33930        0.61540
C          2.02800       -1.21090        0.61500
H          1.79760        0.13860       -1.06320
N          1.22710        2.44800       -0.24060
C          3.97270        1.24300        4.10760
C          3.22820        0.71500        3.12310
C          1.72960        0.88510        3.08020
O          1.36220        1.59520        1.95620
C          5.47090        1.09850        4.13670
H          3.49780        1.80890        4.90430
H          3.71780        0.16510        2.32690
H          1.39600        1.47060        3.96350
H          1.17870       -0.07020        3.14850
H          1.98760       -1.29400        1.70270
H          3.03750       -1.54340        0.29580
H          1.28120       -1.92510        0.20950
H          1.00180        3.36850        0.16380
H          1.27970        2.36350       -1.26660
C          5.90410       -0.36050        4.26240
H          5.86690        1.65900        5.01050
H          5.90240        1.53970        3.21230
H          5.49470       -0.80230        5.19570
H          7.01260       -0.41400        4.29880
H          5.55400       -0.95470        3.39250
