25
TSA8_9_Me_NH2_Et
C          3.01090        0.64830        1.37630
C          1.58140        1.27380        1.19390
C          2.92010       -0.87480        1.19160
H          3.67280        1.01290        0.55850
N          1.63180        2.37610        0.23850
C          3.57370        1.13720        2.73790
C          2.62340        0.75260        3.89040
C          1.15600        0.80430        3.43380
O          0.99760        1.75490        2.40640
C          5.07180        0.89110        3.05840
H          3.51030        2.24670        2.65060
H          2.79770       -0.25740        4.31450
H          0.51470        1.06390        4.30090
H          0.79300       -0.18870        3.08630
H          2.32490       -1.36810        1.98370
H          3.91890       -1.33600        1.15060
H          2.44600       -1.09730        0.21160
H          0.67160        2.77820        0.14730
H          1.89180        1.98980       -0.69750
C          5.49650       -0.52390        3.46380
H          5.33230        1.54500        3.92020
H          5.68390        1.22380        2.19220
H          4.95890       -0.86000        4.37270
H          6.58040       -0.51070        3.70660
H          5.36280       -1.26250        2.66060
