18
TSA8_9_F_OMe_Cl
C          3.35110       -0.53980        0.81310
C          2.30370       -0.21350        1.84400
F          2.81030       -0.38620       -0.45260
H          4.16040        0.21380        0.93510
O          2.53610        0.80230        2.71550
C          4.02090       -1.92960        0.94480
C          3.12050       -3.11380        0.66300
C          2.16390       -3.52670        1.49880
O          1.23590       -0.80860        1.85550
Cl         5.37440       -1.98420       -0.22400
H          4.47490       -2.04390        1.95320
H          3.28080       -3.69340       -0.24250
H          1.97950       -3.03000        2.44310
H          1.56710       -4.39730        1.24570
C          1.64680        1.20370        3.68950
H          2.08220        2.05660        4.24870
H          1.45720        0.36960        4.39890
H          0.69120        1.52970        3.22650
