18
TSA8_9_F_OMe_Cl
C          1.72080       -0.03940       -0.06820
C          1.75630       -0.11470        1.27490
F          1.66670       -1.12840       -0.87470
H          1.72940        0.93810       -0.54240
O          1.79120        1.04960        1.96990
C          4.45970       -3.25100        2.30590
C          3.69930       -2.50110        1.50100
C          2.19850       -2.53250        1.58060
O          1.73840       -1.29130        1.97260
Cl         6.21140       -3.16130        2.21590
H          4.01180       -3.91650        3.03840
H          4.17200       -1.83490        0.78440
H          1.87420       -3.26870        2.34990
H          1.74690       -2.86310        0.62680
C          2.11830        1.11360        3.30560
H          2.03100        2.16440        3.65490
H          3.16930        0.78090        3.44680
H          1.44140        0.47360        3.91090
