20
TSA8_9_I_CBr3_CHF2
C          2.05570       -0.95550       -2.23230
C          0.89750       -1.90730       -2.01520
I          1.74680        0.71430       -0.90460
H          3.00590       -1.44390       -1.92470
C          1.09810       -3.27170       -1.38160
C          2.17280       -0.45870       -3.70210
C          3.33020        0.51000       -3.82090
C          3.15680        1.78200       -4.19400
O         -0.22850       -1.54140       -2.32230
C          2.39040       -1.59070       -4.72410
H          1.22370        0.05770       -3.97170
H          4.33510        0.16260       -3.59650
H          2.17050        2.17100       -4.42670
H          4.01180        2.44620       -4.26730
Br         1.82530       -3.06630        0.40370
Br        -0.57710       -4.24750       -1.22180
Br         2.31530       -4.37270       -2.41090
F          3.55060       -2.29290       -4.44620
F          1.31570       -2.46060       -4.74380
H          2.48050       -1.15310       -5.74170
