23
TSA8_9_OMe_NO2_CBr3
C          2.34480        1.22950       -0.40040
C          1.88290        0.76180       -1.77430
O          1.28390        0.94590        0.50610
H          3.27120        0.67050       -0.13030
N          2.53490       -0.20730       -2.47700
C          2.68060        2.76780       -0.42480
C          2.01110        3.50410        0.72410
C          1.09340        4.45500        0.50700
O          0.87430        1.27150       -2.24690
C          4.21050        3.05270       -0.42510
H          2.27590        3.20130       -1.36660
H          2.27050        3.25650        1.74840
H          0.79930        4.73530       -0.50090
H          0.62560        4.96360        1.34260
C          1.75780        0.22430        1.62650
H          2.55500        0.78480        2.16230
H          2.11330       -0.78630        1.32370
H          0.92160        0.08450        2.34020
O          2.12690       -0.54400       -3.54790
O          3.60950       -0.78820       -1.98940
Br         4.55360        4.96230       -0.55980
Br         5.08200        2.41750        1.19900
Br         5.09410        2.22720       -1.94410
