21
TSA8_9_CF3_OMe_F
C          1.84680       -0.08160       -0.01000
C          1.80950        1.10460        0.64270
C          1.74650       -1.47950        0.55430
H          1.93960       -0.04050       -1.09260
O          1.83900        2.22740       -0.11960
C          3.22230        1.93430        4.97060
C          3.31940        1.78110        3.64660
C          2.61000        0.67980        2.91390
O          1.74060        1.24310        1.99850
F          3.88450        2.94840        5.58620
H          2.61910        1.25950        5.57020
H          3.93110        2.47430        3.07660
H          2.03360        0.04790        3.62300
H          3.38080        0.05550        2.40990
F          2.93470       -2.14660        0.32450
F          1.45410       -1.51890        1.89890
F          0.73270       -2.14420       -0.10970
C          1.85490        3.50280        0.40300
H          1.86870        4.23710       -0.42830
H          2.76530        3.64950        1.02270
H          0.94830        3.67720        1.02110
