21
TSA8_9_CF3_OMe_F
C          2.92300        0.92480        1.15700
C          1.46800        1.16550        1.64130
C          3.04780       -0.49310        0.56590
H          3.19220        1.64310        0.35090
O          0.64570        1.86720        0.72880
C          3.87360        1.19800        2.34250
C          3.42180        0.49540        3.62960
C          1.88990        0.57890        3.79810
O          1.34700        1.60430        2.98750
F          5.19370        0.90830        2.04640
H          3.80680        2.28850        2.55340
H          3.74440       -0.56500        3.70360
H          1.64830        0.76220        4.86530
H          1.41440       -0.39970        3.54770
F          4.33560       -0.70900        0.11060
F          2.73780       -1.45900        1.50590
F          2.18080       -0.62520       -0.50510
C          0.84740        3.25810        0.86130
H          0.40100        3.76140       -0.02010
H          1.92470        3.53670        0.87160
H          0.33050        3.64310        1.76660
