19
TSA8_9_H_Me_NO2
C          2.86980        0.49240        2.09440
C          1.41830        0.40450        1.68930
H          3.50310        0.41160        1.18430
H          3.02670        1.50920        2.51640
C          0.48450        1.53830        1.99500
C          3.35460       -0.52580        3.16460
C          3.27150       -1.97940        2.69970
C          2.11920       -2.65170        2.62220
O          1.00490       -0.55860        1.06400
N          4.71820       -0.16280        3.54750
H          2.73120       -0.42900        4.08120
H          4.17490       -2.53380        2.46530
H          1.17450       -2.19080        2.88730
H          2.11990       -3.69110        2.30940
H          0.43150        1.69140        3.09330
H         -0.53640        1.32390        1.61320
H          0.85710        2.46750        1.51470
O          5.62930       -0.92650        3.43170
O          4.94640        1.02170        4.07650
