18
TSA8_9_CN_CCl3_I
C          2.78830        1.09820       -0.62250
C          1.57200        0.85570       -1.51300
C          2.39740        0.64450        0.73980
H          3.62570        0.46730       -0.98130
C          1.58330       -0.16500       -2.63720
C          3.22890        2.59920       -0.62760
C          2.47380        3.36090        0.42680
C          1.27070        3.86790        0.19770
O          0.53290        1.45450       -1.28070
I          5.31720        2.93150       -0.24960
H          3.11340        3.04410       -1.64270
H          2.85920        3.35120        1.44520
H          0.84220        3.83310       -0.79560
H          0.70540        4.28110        1.02240
N          2.03400        0.35380        1.79520
Cl         2.34690       -1.69170       -2.11750
Cl        -0.08310       -0.56890       -3.15130
Cl         2.45630        0.47780       -4.04740
