18
TSA8_9_CN_CCl3_I
C          1.64570        0.01080       -0.05980
C          1.48580        0.66030       -1.25880
C          1.78540        0.62040        1.24630
H          1.58860       -1.07140       -0.03700
C          1.34870       -0.13310       -2.55970
C          3.75750        4.24550       -0.61140
C          3.04900        3.17380       -0.24420
C          1.57820        3.05770       -0.53390
O          1.35120        2.01430       -1.40520
I          5.80190        4.42250       -0.11010
H          3.29960        5.06370       -1.15520
H          3.55150        2.37420        0.28660
H          1.20900        3.99370       -1.01650
H          0.99700        2.94110        0.40310
N          1.89730        1.10420        2.29290
Cl         2.06030       -1.77050       -2.51320
Cl        -0.33770       -0.28470       -3.01090
Cl         2.05190        0.72890       -3.95290
