20
TSA8_9_Me_Br_CBr3
C          1.53180       -0.81090        2.23020
C          1.24690        0.38720        1.34870
C          1.43240       -2.08780        1.38270
H          2.59010       -0.71750        2.55130
Br         2.60580        1.69810        1.04430
C          0.63160       -0.77740        3.51650
C         -0.84600       -0.83150        3.16760
C         -1.67350        0.18640        3.42690
O          0.15990        0.52710        0.80870
C          0.95760       -1.84370        4.60980
H          0.85700        0.20500        3.99250
H         -1.25130       -1.71990        2.69360
H         -1.31640        1.09590        3.89980
H         -2.72350        0.11170        3.16360
H          1.79090       -2.96830        1.94510
H          2.09370       -1.99890        0.49410
H          0.39440       -2.26130        1.02880
Br        -0.01300       -1.41060        6.23900
Br         0.44900       -3.67000        4.15990
Br         2.84050       -1.83210        5.09070
