26
TSA8_9_CH2F_Et_CCl3
C          2.61680       -0.84330       -1.76200
C          1.35480       -1.69360       -1.67840
C          2.34030        0.49100       -1.04040
H          3.41300       -1.34010       -1.16850
C          1.26160       -2.88620       -0.75140
C          3.16910       -0.57970       -3.21290
C          2.16790        0.18960       -4.06160
C          2.41030        1.43050       -4.49640
O          0.34750       -1.34450       -2.27660
C          3.66780       -1.83430       -3.98640
H          4.07590        0.05230       -3.07520
H          1.22630       -0.27310       -4.33620
H          1.67230        1.94530       -5.10250
H          3.33710        1.94100       -4.25410
F          3.48840        1.26180       -0.98190
H          2.00640        0.29350        0.00130
H          1.54280        1.06910       -1.55380
C          2.20790       -4.02610       -1.10760
H          0.22420       -3.28690       -0.76880
H          1.47910       -2.54560        0.28360
H          1.97980       -4.42040       -2.11740
H          2.07260       -4.85350       -0.37950
H          3.26290       -3.69600       -1.05560
Cl         2.35750       -2.96860       -4.41640
Cl         4.44170       -1.33170       -5.51780
Cl         4.91860       -2.70850       -3.06170
