26
TSA8_9_CH2F_Et_CCl3
C          1.64190       -0.14520       -0.09400
C          1.31990       -1.10350       -1.00360
C          1.93940        1.30240       -0.37870
H          1.65820       -0.41300        0.95830
C          0.94990       -2.48570       -0.51770
C          3.78480       -0.84420       -4.96180
C          2.81380       -1.21760       -4.11560
C          2.25680       -0.25990       -3.10650
O          1.29320       -0.90610       -2.35290
C          4.37780       -1.80380       -5.96030
H          4.16200        0.17520       -4.91740
H          2.43320       -2.23490       -4.14990
H          1.79860        0.60830       -3.62550
H          3.10490        0.07790       -2.47330
F          3.22920        1.59550        0.02140
H          1.23110        1.92520        0.20620
H          1.80700        1.59380       -1.43460
C          1.88390       -3.53870       -1.10580
H         -0.09110       -2.70950       -0.83270
H          0.99550       -2.55520        0.59150
H          1.81380       -3.54410       -2.21430
H          1.59180       -4.54410       -0.73650
H          2.93390       -3.33620       -0.80710
Cl         3.12330       -2.39930       -7.07860
Cl         5.64150       -0.98540       -6.91260
Cl         5.11960       -3.18970       -5.11690
