26
TSA8_9_CH2F_Et_CCl3
C          2.92400       -1.02670       -2.15400
C          1.45560       -1.52400       -2.27000
C          3.07310        0.00700       -1.01670
H          3.58920       -1.87430       -1.89570
C          0.91730       -2.33760       -1.08120
C          3.36730       -0.42790       -3.53810
C          2.14720       -0.22710       -4.46760
C          0.97140        0.34650       -3.66240
O          0.57340       -0.44250       -2.54080
C          4.46230       -1.27600       -4.24490
H          3.81130        0.57850       -3.36850
H          1.80660       -1.19830       -4.88780
H          0.10480        0.45400       -4.34740
H          1.25120        1.35900       -3.30110
F          4.39080        0.41600       -0.91080
H          2.78050       -0.43780       -0.04430
H          2.43770        0.89830       -1.20010
C          1.70550       -3.62270       -0.83490
H         -0.12900       -2.62760       -1.31860
H          0.89520       -1.72340       -0.15690
H          1.71470       -4.24860       -1.75260
H          1.22460       -4.19860       -0.01640
H          2.74740       -3.40550       -0.52500
Cl         3.91460       -2.94940       -4.56640
Cl         4.92850       -0.53070       -5.80010
Cl         5.93930       -1.35940       -3.24380
