21
TSA8_9_OMe_I_CH2F
C          0.84170        1.27440        1.38610
C          1.39260        1.20750       -0.02020
O          1.81720        0.81140        2.30760
H         -0.09290        0.66780        1.45620
I          0.42170        0.05290       -1.49530
C          0.45130        2.72930        1.74330
C         -0.66620        3.20540        0.83870
C         -0.52540        4.24960        0.01750
O          2.40910        1.81730       -0.31470
C         -0.00270        2.85170        3.20700
H          1.34980        3.37840        1.62540
H         -1.61620        2.67870        0.85620
H          0.40660        4.80350       -0.03420
H         -1.35350        4.55430       -0.61370
C          1.89170       -0.60220        2.29710
H          2.40010       -0.92940        3.22770
H          2.49700       -0.95100        1.43400
H          0.89430       -1.09240        2.31040
F         -1.10780        2.05440        3.45430
H         -0.26170        3.90860        3.43450
H          0.81760        2.55190        3.89280
