21
TSA8_9_OMe_I_CH2F
C          1.44440       -0.02080        0.01780
C          1.33040        1.18480       -0.53800
O          1.55410       -0.12850        1.36300
H          1.41510       -0.90960       -0.60580
I          1.08270        1.37440       -2.63050
C          0.01920        4.33900        2.56870
C         -0.01220        3.18570        1.88760
C          0.27700        3.11850        0.41690
O          1.35920        2.28390        0.24870
C         -0.23040        4.36760        4.04580
H          0.23860        5.27200        2.05730
H         -0.23300        2.25710        2.40880
H          0.51540        4.12110        0.00210
H         -0.62270        2.72450       -0.10800
C          1.53380       -1.33890        2.01230
H          1.61330       -1.16450        3.10540
H          2.38600       -1.96850        1.68050
H          0.57470       -1.86290        1.80710
F         -1.48880        3.86820        4.32810
H         -0.16080        5.41150        4.41620
H          0.53520        3.75320        4.56610
