19
TSA8_9_NH2_Br_Me
C          1.36280       -2.30840        1.20250
C          1.13430       -0.81510        1.28760
N          1.25420       -2.76620       -0.18640
H          2.40200       -2.50860        1.54640
Br         2.52020        0.33530        1.92710
C          0.41450       -3.09820        2.14740
C         -1.04830       -2.89590        1.81020
C         -1.90190       -2.34340        2.67860
O          0.07160       -0.32400        0.93980
C          0.73220       -4.59820        2.11390
H          0.61050       -2.74210        3.18500
H         -1.42230       -3.20730        0.83970
H         -1.57510       -2.01650        3.66060
H         -2.94400       -2.21340        2.40620
H          1.98380       -2.28970       -0.76560
H          0.31690       -2.53130       -0.58400
H          0.55790       -5.01910        1.10020
H          0.08620       -5.14080        2.83710
H          1.79230       -4.77330        2.39680
