19
TSA8_9_NH2_Br_Me
C          1.52340       -2.51460        1.43110
C          1.15680       -1.02280        1.57090
N          1.63290       -2.87450        0.01300
H          2.51590       -2.69470        1.89960
Br         1.49830       -0.27150        3.33970
C          0.45810       -3.36600        2.15970
C         -0.94200       -2.97980        1.67000
C         -1.12570       -1.46520        1.82820
O         -0.15120       -0.73950        1.09310
C          0.70280       -4.86920        1.99800
H          0.50890       -3.13060        3.24660
H         -1.08880       -3.26380        0.60630
H         -1.11770       -1.17580        2.90170
H         -2.13070       -1.19610        1.44320
H          2.42560       -2.34130       -0.41320
H          0.76440       -2.62920       -0.51210
H          0.64290       -5.16890        0.92980
H         -0.06100       -5.44070        2.56730
H          1.70700       -5.13610        2.39000
