15
TSA8_9_I_Cl_CN
C          1.10290       -1.40480        1.49750
C          1.75840       -0.24740        2.21510
I          1.15960       -1.72260       -0.62900
H          0.52240       -0.62690        0.95970
Cl         3.24770        0.45290        1.62640
C          0.00920       -2.13080        2.36070
C         -1.30510       -1.73600        1.77170
C         -1.87050       -0.61560        2.21450
O          1.12500        0.38800        3.04980
C          0.07330       -3.58990        2.55120
H          0.07920       -1.76430        3.40790
H         -1.65220       -2.20030        0.85100
H         -1.44830       -0.09480        3.07160
H         -2.70070       -0.18180        1.68400
N          0.12350       -4.72570        2.77620
