15
TSA8_9_I_Cl_CN
C          1.50210       -0.18840        0.10380
C          1.40680        0.07790        1.42810
I          0.78080       -1.24880       -1.61330
H          1.74160        0.78320       -0.31750
Cl         2.92680        0.67520        2.12670
C         -1.07580       -2.79360        3.27310
C         -0.85610       -2.06190        2.19130
C         -0.88520       -0.59460        2.35550
O          0.45060       -0.22100        2.35920
C         -0.69880       -4.17100        3.27390
H         -1.43150       -2.32120        4.19200
H         -0.45530       -2.50230        1.27990
H         -1.33390       -0.31180        3.33600
H         -1.57600        0.05000        1.80390
N         -0.40360       -5.28690        3.30640
