21
TSA8_9_CBr3_Me_CN
C          1.62690        0.02480       -0.04280
C          1.54210        0.21510       -1.46780
C          1.67220        0.83120        1.23320
H          1.49890       -1.03170        0.25540
C          1.88240       -1.03370       -2.22640
C          1.35920        4.21800       -3.17560
C          1.49570        3.35640       -2.16050
C          0.40740        2.33820       -1.85460
O          0.75680        1.07060       -2.25070
C          2.47710        5.04640       -3.56960
H          0.44100        4.24060       -3.76080
H          2.42870        3.36810       -1.61500
H         -0.48770        2.61410       -2.41450
H          0.05640        2.33630       -0.81600
Br         0.63290        0.21260        2.74490
Br         3.51690        0.41020        1.70620
Br         1.53210        2.76230        1.25880
H          2.34120       -0.81830       -3.21780
H          0.94810       -1.61070       -2.39770
H          2.63300       -1.64390       -1.66810
N          3.38570        5.69980       -3.86770
