18
TSA8_9_CN_CHF2_H
C          1.67430        0.00950        0.05820
C          1.50800       -0.68840        1.22920
C          1.79420       -0.66640       -1.20700
H          1.59220        1.07570        0.05700
C          1.24750        0.11190        2.50080
C          3.75240       -4.52810        2.35300
C          3.16090       -3.55500        1.66460
C          1.85300       -2.98140        2.12450
O          1.46350       -2.05690        1.17030
H          4.69450       -4.94900        2.02100
H          3.28880       -4.91560        3.25150
H          3.63420       -3.17730        0.75630
H          1.98590       -2.55550        3.13320
H          1.11060       -3.80740        2.21110
N          1.88980       -1.15300       -2.25310
F          1.83270       -0.41350        3.63180
F          1.69940        1.41690        2.37250
H          0.14870        0.13490        2.64190
