23
TSA8_9_OMe_OMe_CN
C          1.59950       -0.07340        0.01320
C          1.52990       -1.47020        0.08400
O          1.69970        0.70100       -1.11730
H          1.50510        0.48400        0.94770
O          1.58520       -2.02840        1.32060
C          2.55380       -2.44290       -3.87780
C          1.92210       -1.55910       -3.10560
C          0.83630       -2.03490       -2.18670
O          1.42050       -2.34830       -0.97720
C          3.80650       -2.08300       -4.48940
H          2.17810       -3.45490       -3.97200
H          2.35130       -0.56880       -2.99810
H          0.33790       -2.93350       -2.59850
H          0.00040       -1.32510       -2.03010
C          0.75190        1.44400       -1.81990
H          1.28640        1.92310       -2.66840
H          0.25910        2.25090       -1.23370
H          0.00050        0.78180       -2.29080
C          2.05250       -3.32790        1.45850
H          2.42100       -3.50240        2.48300
H          2.93080       -3.53400        0.78460
H          1.25740       -4.05100        1.20540
N          4.80940       -1.75170       -4.96150
