20
TSA8_9_CBr3_H_CF3
C          1.78070        0.01250        0.04970
C          1.08460        1.06150        0.52080
C          2.15030       -1.26460        0.77950
H          2.11490        0.07860       -0.98240
H          0.89840        1.89390       -0.15400
C         -0.22480        2.89170        4.58460
C         -0.51710        1.94970        3.67450
C         -0.20820        2.13990        2.21670
O          0.61010        1.11940        1.78610
C         -0.54070        2.69690        6.03800
H          0.24470        3.82130        4.27450
H         -0.99400        1.02520        3.98520
H          0.28760        3.12060        2.03970
H         -1.16070        2.11450        1.64380
Br         1.40500       -2.75090       -0.21140
Br         4.07730       -1.43670        0.76690
Br         1.55950       -1.44910        2.62590
F          0.14360        1.59860        6.52420
F         -0.15660        3.81850        6.75020
F         -1.90010        2.50290        6.20380
