24
TSA8_9_Et_CN_CBr3
C          1.63570       -0.08530        0.11560
C          1.37300       -1.39980        0.30280
C          1.77560        0.74780       -1.13440
H          1.81780        0.49990        1.01660
C          1.40930       -1.87410        1.66310
C          2.17400       -2.15170       -3.85960
C          1.65640       -2.85670       -2.84170
C          0.60870       -2.28790       -1.92930
O          1.07940       -2.35940       -0.63030
C          3.23800       -2.66030       -4.80410
H          1.81430       -1.14220       -4.03180
H          1.98240       -3.87020       -2.63760
H         -0.29270       -2.93130       -2.00720
H          0.26510       -1.27910       -2.21480
C          3.18410        1.33770       -1.13900
H          1.03890        1.58020       -1.09630
H          1.65160        0.21580       -2.08500
H          3.37390        1.89640       -0.19580
H          3.31370        2.03660       -1.99140
H          3.92960        0.51720       -1.22520
N          1.48360       -2.24090        2.75770
Br         2.52390       -2.61930       -6.60080
Br         4.75560       -1.46310       -4.71230
Br         3.88480       -4.46610       -4.45680
