17
TSA8_9_Cl_Me_H
C          2.95780       -0.88880       -1.39090
C          1.46210       -1.09440       -1.43350
Cl         3.36330        0.29810       -0.11760
H          3.42410       -1.85430       -1.09500
C          0.88440       -2.45580       -1.18400
C          3.61450       -0.49640       -2.73490
C          3.24440        0.85810       -3.29120
C          2.05930        1.12560       -3.84620
O          0.70940       -0.15250       -1.62610
H          4.70960       -0.47240       -2.54290
H          3.43410       -1.27820       -3.50430
H          3.99580        1.64250       -3.27830
H          1.28830        0.36920       -3.93040
H          1.86230        2.11470       -4.24710
H          1.25980       -3.16550       -1.95090
H         -0.22510       -2.42880       -1.23360
H          1.18820       -2.81130       -0.17720
