17
TSA8_9_Cl_Me_H
C          3.00300       -0.60840       -1.38240
C          1.45090       -0.70060       -1.54730
Cl         3.46090        0.94970       -0.63010
H          3.37390       -1.39190       -0.68620
C          0.95600       -2.11510       -1.24890
C          3.65900       -0.75980       -2.75600
C          3.14180        0.31450       -3.72580
C          1.70720        0.74370       -3.37390
O          0.98060       -0.34520       -2.85110
H          4.76850       -0.73870       -2.70600
H          3.35870       -1.75230       -3.15600
H          3.77380        1.22890       -3.72670
H          1.20970        1.13740       -4.28390
H          1.70130        1.58170       -2.64110
H          1.39030       -2.84140       -1.96830
H         -0.15090       -2.14570       -1.32950
H          1.23660       -2.40820       -0.21540
