17
TSA8_9_NH2_I_CN
C          2.51190        1.82150        0.47080
C          1.15190        1.64600       -0.27490
N          2.63900        0.80620        1.52470
H          3.36390        1.68720       -0.23220
I          1.45830        1.53820       -2.39150
C          2.55730        3.25280        1.04080
C          1.37900        3.45630        1.99170
C          0.08230        2.92080        1.35910
O          0.23280        2.71000       -0.03230
C          3.82100        3.63340        1.68520
H          2.43010        3.95140        0.18480
H          1.53420        2.94350        2.96980
H         -0.70620        3.68090        1.53480
H         -0.26530        1.98500        1.85130
H          2.82240       -0.12320        1.08080
H          1.74160        0.70920        2.05470
N          4.80190        3.97040        2.19880
