17
TSA8_9_NO2_Br_CN
C          1.65880       -0.02470       -0.00400
C          1.74930       -1.36150       -0.45920
N          1.64540        1.23130       -0.62280
H          1.48730        0.06830        1.06600
Br         1.81950       -2.64510        0.98970
C          2.31420       -0.07850       -4.59600
C          2.37350       -0.80720       -3.47270
C          1.11080       -1.31220       -2.80390
O          1.34790       -2.01510       -1.63380
C          3.52630        0.46260       -5.17150
H          1.35960        0.13760       -5.07820
H          3.34610       -0.99230       -3.04410
H          0.62480       -1.96930       -3.54200
H          0.40080       -0.48790       -2.58870
O          1.76820        2.19770        0.06710
O          1.61280        1.38850       -1.91400
N          4.47970        0.91080       -5.65340
