19
TSA8_9_NH2_CBr3_H
C          2.87440       -1.19980       -0.39900
C          1.41600       -1.56080       -0.00060
N          2.88190       -0.01390       -1.26430
H          3.47840       -0.90430        0.48600
C          1.20420       -2.24330        1.37250
C          3.58580       -2.38510       -1.07810
C          2.62820       -3.32150       -1.82790
C          1.30670       -2.63890       -2.16990
O          0.60840       -2.14420       -1.03030
H          4.09380       -3.01290       -0.31420
H          4.38750       -2.00270       -1.74550
H          2.36730       -4.18540       -1.18380
H          0.66460       -3.40400       -2.65400
H          1.44140       -1.84940       -2.93120
H          2.31050       -0.12610       -2.12580
H          2.50090        0.80100       -0.73120
Br        -0.69620       -2.46000        1.69680
Br         2.03180       -3.98690        1.55450
Br         1.87690       -1.10770        2.79490
