19
TSA8_9_OH_H_OMe
C          3.04160        1.07570       -1.16580
C          1.48680        1.12380       -1.11190
O          3.55670        0.91840        0.13140
H          3.36830        0.21750       -1.79770
H          1.11990        0.83840       -2.12140
C          3.51590        2.40680       -1.79160
C          3.03740        3.61450       -0.96230
C          1.79420        3.25370       -0.12790
O          0.91800        2.41060       -0.84680
O          4.88670        2.49690       -2.16370
H          2.95670        2.46680       -2.75180
H          3.79940        4.01060       -0.25950
H          1.26870        4.18870        0.15580
H          2.07630        2.76310        0.83000
H          3.35550       -0.01440        0.40540
C          5.77530        2.11120       -1.13720
H          6.78910        2.47280       -1.40510
H          5.83250        1.00410       -1.06650
H          5.53200        2.57380       -0.15810
