21
TSA8_9_Et_OH_H
C          2.44080       -0.02380       -1.34390
C          1.12810       -0.70550       -1.68160
C          2.24840        0.86630       -0.09180
H          3.16170       -0.82950       -1.08070
O          1.03450       -2.05330       -1.68030
C          3.07610        0.72640       -2.54920
C          2.39510        2.00280       -2.98620
C          1.23140        2.03820       -3.63910
O          0.12490       -0.04790       -1.90590
H          4.10490        1.00950       -2.24300
H          3.19410        0.04280       -3.41810
H          2.90280        2.94340       -2.79180
H          0.69910        1.13490       -3.90650
H          0.81150        2.99350       -3.93720
C          3.54560        1.48630        0.42890
H          1.82610        0.23960        0.72480
H          1.52390        1.68110       -0.30980
H          4.28210        0.69150        0.67270
H          3.33020        2.06700        1.35040
H          3.98380        2.18420       -0.31310
H          1.79330       -2.62210       -1.48960
