18
TSA8_9_F_OH_CF3
C          3.40470        1.51550       -1.15920
C          1.92610        1.27810       -0.79440
F          4.13970        0.56920       -0.46580
H          3.60240        1.39040       -2.24580
O          1.36230        0.19360       -1.47800
C          3.80430        2.96150       -0.75540
C          3.01780        3.35240        0.50100
C          1.50850        3.35970        0.11930
O          1.14760        2.44260       -0.91430
C          5.32040        3.15200       -0.59420
H          3.46750        3.65360       -1.56160
H          3.22360        2.59310        1.28820
H          1.30600        4.37190       -0.28890
H          0.86970        3.23130        1.01890
H          1.29550        0.46760       -2.42980
F          5.81190        2.36780        0.43500
F          5.96460        2.81170       -1.77040
F          5.59290        4.47810       -0.30830
