19
TSA8_9_CN_Cl_OMe
C          1.63040       -0.07180       -0.03010
C          1.44820       -0.87460       -1.12440
C          1.81610        1.36010       -0.02090
H          1.62010       -0.54650        0.94020
Cl         1.36600       -2.59370       -0.82720
C          2.77500        2.64810       -3.27690
C          2.57630        1.36210       -2.97080
C          1.18840        0.80790       -2.91000
O          1.25410       -0.47980       -2.42620
O          4.00340        3.23070       -3.32670
H          1.91040        3.26200       -3.50170
H          3.40790        0.69770       -2.74890
H          0.72240        0.82640       -3.92700
H          0.52550        1.41260       -2.25350
N          1.96750        2.50680        0.01500
C          5.15970        2.80460       -2.69710
H          5.87750        2.41840       -3.44970
H          4.96980        2.03500       -1.92050
H          5.62170        3.67410       -2.18420
