19
TSA8_9_CN_Cl_OMe
C          2.34110        0.95930       -0.92060
C          1.24580       -0.08210       -1.24270
C          1.92030        1.67360        0.30990
H          3.31050        0.44320       -0.76680
Cl         1.39200       -1.46060       -0.11380
C          2.48810        1.99840       -2.07030
C          2.42790        1.32280       -3.45300
C          1.15920        0.47290       -3.46840
O          1.33280       -0.59000       -2.55790
O          3.56280        2.91810       -1.87650
H          1.57150        2.62810       -2.07030
H          3.29250        0.64370       -3.63370
H          0.98620        0.06110       -4.48210
H          0.25370        1.08640       -3.22920
N          1.53560        2.25150        1.22910
C          4.82990        2.42990       -2.27450
H          4.88350        2.23950       -3.36700
H          5.15550        1.55650       -1.67170
H          5.57290        3.23540       -2.08970
