19
TSA8_9_Me_NH2_Br
C          1.92240       -0.04170        0.06500
C          1.27060       -0.26640        1.22030
C          2.03870       -1.06040       -1.03430
H          2.39290        0.92330       -0.10310
N          1.20860        0.76930        2.19770
C         -0.22910       -4.16940        3.29940
C         -0.54380       -3.22460        2.40660
C         -0.06360       -1.80970        2.54680
O          0.67840       -1.47380        1.43470
Br        -0.86390       -5.95890        3.07960
H          0.38870       -3.94060        4.16260
H         -1.16490       -3.48090        1.55340
H          0.55810       -1.69400        3.46220
H         -0.94910       -1.14220        2.62080
H          1.53070       -2.01620       -0.78910
H          3.11140       -1.27070       -1.22480
H          1.58250       -0.64910       -1.95870
H          0.71660        0.63730        3.09160
H          1.65910        1.68100        2.02860
