18
TSA8_9_CHF2_I_CN
C          1.57930        0.12580        0.00840
C          1.22400        1.27820        0.64400
C          1.80770       -1.31240        0.44260
H          1.76670        0.23900       -1.05120
I          1.23770        3.02040       -0.55600
C          1.18550        0.61250        5.18370
C          1.37030        0.32680        3.89050
C          0.32630        0.61430        2.85730
O          0.89680        1.47930        1.95170
C          2.27830        0.50560        6.11580
H          0.23670        1.00190        5.53370
H          2.32410       -0.06070        3.54470
H         -0.57070        1.10050        3.30380
H         -0.06750       -0.28260        2.36350
F          3.14570       -1.57380        0.23480
F          1.52290       -1.64020        1.74570
H          1.22100       -1.99630       -0.21200
N          3.15100        0.42260        6.87090
