21
TSA8_9_Et_H_OH
C          2.44110        0.02260        1.55600
C          1.18040        0.82600        1.80220
C          2.24560       -0.84580        0.28500
H          3.20830        0.79510        1.32660
H          0.77930        1.43150        0.99510
C          2.94280       -0.77870        2.80380
C          2.20390       -2.08470        3.06530
C          0.90930       -2.18990        3.38140
O          0.64120        0.88270        2.89510
O          4.30330       -1.07550        2.61560
H          2.86850       -0.11150        3.69480
H          2.77450       -3.00770        3.00460
H          0.25760       -1.33920        3.48420
H          0.48060       -3.17170        3.55520
C          3.51880       -1.53680       -0.20500
H          1.90140       -0.18500       -0.54150
H          1.45690       -1.60980        0.45680
H          4.31240       -0.78480       -0.40190
H          3.30200       -2.07740       -1.15020
H          3.88260       -2.28280        0.52900
H          4.68540       -1.28280        3.50920
