21
TSA8_9_Et_H_OH
C          2.38600       -0.11780        1.40480
C          0.96720        0.44890        1.72590
C          2.28670       -1.18790        0.28350
H          2.99650        0.71470        0.98780
H          1.06460        1.55000        1.83860
C          3.00230       -0.59710        2.73730
C          2.12040       -1.67610        3.37970
C          0.62860       -1.39510        3.12170
O          0.40350       -0.01350        2.95550
O          4.32050       -1.05580        2.61140
H          2.99080        0.27030        3.43960
H          2.34370       -2.70450        3.02180
H          0.03520       -1.78060        3.97610
H          0.24820       -1.94180        2.23190
C          3.64050       -1.65980       -0.24850
H          1.75040       -0.72650       -0.57480
H          1.70710       -2.07510        0.60210
H          4.23710       -0.79470       -0.60800
H          3.47640       -2.35250       -1.10080
H          4.21160       -2.21500        0.52000
H          4.88830       -0.25400        2.46730
