18
TSA8_9_CF3_CN_Cl
C          1.71400       -0.07280       -0.05930
C          1.49990        0.01590       -1.40570
C          1.83550        0.95930        1.04630
H          1.87430       -1.07740        0.32670
C          1.55020       -1.21610       -2.14920
C          1.34120        4.53900       -2.61850
C          1.52360        3.46890       -1.84010
C          0.59470        2.28360       -1.87110
O          1.30750        1.14510       -2.15420
Cl         2.45490        5.89330       -2.52410
H          0.50270        4.59600       -3.30500
H          2.36830        3.45570       -1.15950
H         -0.18010        2.41720       -2.65820
H          0.03290        2.18810       -0.92770
F          3.14680        0.94510        1.47960
F          1.52730        2.25160        0.71230
F          1.02470        0.58510        2.09970
N          1.59070       -2.20700       -2.74680
