23
TSA8_9_CBr3_CH2F_CBr3
C          1.07680       -1.49200        1.08960
C          2.29260       -2.43190        1.19100
C          1.39430        0.04410        0.90280
H          0.66080       -1.70440        0.07750
C          3.71800       -2.01290        1.45120
C         -0.12340       -1.89240        2.06550
C         -0.73170       -3.19540        1.55350
C         -1.96060       -3.24710        1.02530
O          2.11380       -3.62530        1.00530
C          0.09510       -2.03920        3.61700
H         -0.90770       -1.11960        1.94490
H         -0.17030       -4.12030        1.61540
H         -2.57550       -2.35690        0.93700
H         -2.36020       -4.19290        0.67440
Br        -0.22580        1.04280        0.49450
Br         2.28970        1.02590        2.32040
Br         2.50480        0.28120       -0.68230
F          4.18490       -2.63510        2.59410
H          3.85820       -0.93270        1.57020
H          4.34740       -2.32750        0.59270
Br         0.52690       -0.41230        4.55660
Br        -1.57580       -2.58050        4.46570
Br         1.40360       -3.38600        4.11950
