18
TSA8_9_F_CHF2_CN
C          1.58160       -0.01730        0.03020
C          1.49020       -0.86530        1.21620
F          1.51440       -0.54210       -1.21970
H          1.44650        1.05300        0.07000
C          2.02440       -0.44600        2.59150
C          1.39340       -4.93540        0.48860
C          1.00620       -3.87610       -0.21390
C          0.37840       -2.81840        0.57960
O          1.52290       -2.21350        1.06830
C          2.58800       -5.60680        0.08470
H          0.94020       -5.15470        1.45350
H          1.54120       -3.58340       -1.12240
H         -0.24290       -3.15730        1.44430
H         -0.25750       -2.16730       -0.05690
F          1.37530       -1.25050        3.49390
F          3.39290       -0.68910        2.80180
H          1.83920        0.61490        2.77400
N          3.55420       -6.12510       -0.27570
