18
TSA8_9_F_CHF2_CN
C          2.22770       -1.90370        0.13050
C          1.24810       -1.30140        1.20000
F          1.81290       -1.52440       -1.13730
H          3.26360       -1.52450        0.25520
C          1.94060       -0.59540        2.38710
C          2.14870       -3.43290        0.26840
C          0.71460       -3.87140       -0.05500
C         -0.30380       -2.92840        0.60660
O          0.28780       -2.24150        1.68710
C          3.10590       -4.20000       -0.53810
H          2.37130       -3.68370        1.32860
H          0.51100       -3.86310       -1.15250
H         -1.15520       -3.54020        0.96820
H         -0.72360       -2.19460       -0.12060
F          1.31390       -0.90900        3.58170
F          3.27980       -0.92570        2.50170
H          1.86010        0.50040        2.23490
N          3.84170       -4.84690       -1.15430
