18
TSA8_9_I_CN_CF3
C          2.77000        0.71440       -1.52360
C          1.42470       -0.08330       -1.53610
I          2.77420        2.06340        0.14680
H          3.62930        0.02580       -1.33810
C          1.65610       -1.52880       -1.64640
C          2.93290        1.40550       -2.89770
C          1.72070        2.32210       -3.15460
C          0.42330        1.69300       -2.63580
O          0.54270        0.29350       -2.59090
C          4.25850        2.14910       -3.20350
H          2.90090        0.55490       -3.61470
H          1.81090        3.30110       -2.62890
H         -0.40130        1.97640       -3.31970
H          0.14280        2.06920       -1.62820
N          1.79420       -2.67390       -1.72930
F          5.33390        1.52010       -2.60580
F          4.46200        2.13940       -4.57630
F          4.22780        3.46980       -2.78580
