21
TSA8_9_CF3_CHF2_CN
C          1.80250        1.68350       -0.58960
C          0.79580        0.67740       -1.32930
C          1.91400        1.37530        0.96030
H          2.80000        1.55390       -1.06790
C          1.40420       -0.62550       -1.90050
C          1.34190        3.18140       -0.75820
C          0.63470        3.47300       -2.05310
C         -0.46790        2.44540       -2.15480
O          0.13400        1.22430       -2.45640
C          2.39290        4.20220       -0.55640
H          0.55970        3.39370        0.00710
H          1.30770        3.41810       -2.94060
H         -1.15390        2.71820       -2.97750
H         -1.08490        2.38170       -1.22480
F          3.08360        0.70960        1.26180
F          1.90700        2.53520        1.73060
F          0.84210        0.61060        1.39510
F          2.09240       -0.36070       -3.07840
F          2.23690       -1.28570       -1.02290
H          0.56080       -1.30050       -2.17870
N          3.17170        5.04380       -0.41760
