24
TSA8_9_Et_CN_CHF2
C          2.30540        1.72360        0.87010
C          1.33330        2.09120       -0.24490
C          2.18610        0.18360        1.16160
H          3.28800        1.94240        0.39320
C          1.53770        1.54340       -1.56270
C          2.14330        2.66080        2.13880
C          1.09060        2.18200        3.12670
C         -0.22420        2.24060        2.90170
O          0.48690        2.95960       -0.10280
C          3.45140        2.95030        2.89860
H          1.86670        3.68370        1.79630
H          1.41840        1.76770        4.07740
H         -0.63400        2.66260        1.99670
H         -0.91250        1.87250        3.65580
C          3.51090       -0.54350        1.37080
H          1.73200       -0.34100        0.29290
H          1.49490       -0.01650        2.00420
H          4.09710       -0.52130        0.42630
H          3.29920       -1.60970        1.61050
H          4.11140       -0.11390        2.18760
N          1.71080        1.11360       -2.62840
F          3.98160        1.82640        3.49450
F          4.38640        3.51790        2.05050
H          3.23440        3.69570        3.69930
