19
TSA8_9_NH2_NH2_CN
C          2.28700       -0.96850       -1.45780
C          1.36240       -2.04130       -0.89660
N          2.04690        0.33810       -0.80460
H          3.30960       -1.30280       -1.18260
N          1.56640       -2.53820        0.34290
C          2.20570       -0.92510       -3.02310
C          1.35830        0.20790       -3.52110
C          0.02740        0.12910       -3.47740
O          0.48460       -2.53820       -1.58790
C          3.51400       -0.96040       -3.70410
H          1.78920       -1.87750       -3.41960
H          1.82900        1.12880       -3.85540
H         -0.46040       -0.77660       -3.13380
H         -0.58390        0.97190       -3.77790
H          2.81200        1.01770       -1.01980
H          1.13730        0.77630       -1.09400
H          0.99370       -3.32900        0.67520
H          2.32400       -2.18220        0.94170
N          4.51300       -1.07630       -4.28500
