19
TSA8_9_Me_I_NO2
C          1.88670        0.02770        0.07020
C          1.19360        0.43220        1.14530
C          2.10640       -1.41690       -0.28010
H          2.31220        0.77440       -0.59320
I          0.98130        2.52770        1.45740
C         -0.25320       -1.61800        5.08060
C         -0.55290       -1.40510        3.78600
C         -0.13780       -0.14890        3.07710
O          0.64900       -0.47730        1.99500
N         -0.64370       -2.80230        5.76650
H          0.30390       -0.86340        5.63130
H         -1.11270       -2.14690        3.22360
H          0.42620        0.52450        3.76050
H         -1.05150        0.37740        2.72650
H          1.63480       -2.10980        0.44750
H          3.19610       -1.62390       -0.30940
H          1.67490       -1.61500       -1.28320
O         -1.25560       -3.66450        5.21110
O         -0.32820       -2.94900        7.03500
