19
TSA8_9_Me_I_NO2
C          1.47050       -1.09190        2.07540
C          1.11290        0.35530        1.68510
C          1.21990       -2.00430        0.86140
H          2.55800       -1.14990        2.29890
I          1.99500        1.88630        2.92070
C          0.66180       -1.46020        3.34910
C         -0.83060       -1.18810        3.12360
C         -1.00840        0.26400        2.66130
O         -0.28090        0.52990        1.47140
N          0.88210       -2.82580        3.79490
H          1.00010       -0.77500        4.15940
H         -1.24890       -1.87570        2.35860
H         -0.72770        0.97280        3.46970
H         -2.08660        0.43450        2.46160
H          1.54580       -3.04270        1.06820
H          1.82330       -1.64620       -0.00020
H          0.15400       -2.00770        0.55500
O          0.51600       -3.75350        3.13860
O          1.42490       -3.04670        4.97310
