19
TSA8_9_CCl3_NO2_Cl
C          1.51730        0.10980       -0.65930
C          2.13140       -0.94190       -1.28030
C          2.13820        1.34920       -0.04140
H          0.44150        0.06700       -0.56380
N          3.54990       -1.05860       -1.45860
C         -0.00110       -1.89020       -4.84110
C          0.26750       -1.24460       -3.69990
C          0.13740       -1.91770       -2.35980
O          1.38220       -1.98090       -1.75900
Cl         0.19550       -1.08400       -6.38800
H         -0.33410       -2.92360       -4.83320
H          0.60860       -0.21380       -3.73650
H         -0.22990       -2.95900       -2.49080
H         -0.60870       -1.39550       -1.72980
Cl         2.94190        2.35780       -1.27520
Cl         0.85120        2.35280        0.68120
Cl         3.25810        0.93690        1.28750
O          3.98500       -2.02390       -2.00730
O          4.38650       -0.11290       -1.09870
