17
TSA8_9_Cl_F_Me
C          2.13440        0.91900       -2.31980
C          1.01960        1.20020       -1.27170
Cl         3.69590        0.59150       -1.50060
H          1.88220       -0.01010       -2.87620
F         -0.17230        0.68880       -1.75370
C          2.21650        2.12600       -3.26710
C          2.54890        3.40130       -2.46660
C          1.99940        3.32170       -1.03030
O          0.79830        2.58530       -0.99040
C          3.19030        1.92290       -4.43150
H          1.19980        2.25870       -3.69980
H          3.64030        3.60300       -2.38700
H          1.83180        4.35010       -0.64910
H          2.73770        2.86140       -0.33660
H          2.89760        1.02660       -5.01850
H          4.22890        1.78670       -4.06330
H          3.16480        2.80640       -5.10410
