14
TSA8_9_Br_I_H
C          3.00430        1.41090        0.92120
C          1.50460        1.51450        0.83880
Br         3.58790       -0.28130        0.16070
H          3.42440        2.21500        0.27980
I          0.61360        3.07440       -0.27110
C          3.60960        1.62370        2.32760
C          3.28300        0.57300        3.36200
C          2.08410        0.45740        3.93930
O          0.78440        0.67350        1.35130
H          4.71250        1.60380        2.19010
H          3.34560        2.62930        2.72100
H          4.07620       -0.09620        3.68380
H          1.26850        1.12650        3.69300
H          1.91900       -0.30720        4.69170
