14
TSA8_9_Br_I_H
C          3.01780        1.22500        1.15270
C          1.46680        1.32350        1.24800
Br         3.59420       -0.62820        0.97710
H          3.37470        1.72340        0.22650
I          0.79900        3.09950        0.25330
C          3.62990        1.87910        2.39100
C          3.11630        1.20140        3.67030
C          1.71010        0.60920        3.46960
O          0.95560        1.40160        2.58110
H          4.74030        1.88370        2.36910
H          3.28840        2.93690        2.40650
H          3.77970        0.37870        4.01380
H          1.19980        0.54280        4.45260
H          1.75710       -0.43410        3.08600
