18
TSA8_9_F_NH2_NO2
C          3.10110       -0.18340       -0.70870
C          1.74200       -0.84740       -0.71420
F          2.95300        1.18720       -0.55050
H          3.66670       -0.57110        0.16600
N          1.63200       -2.19600       -0.76820
C          3.89690       -0.48210       -2.00000
C          3.18540        0.07380       -3.21480
C          2.75920       -0.71030       -4.20940
O          0.73120       -0.16270       -0.65770
N          5.23040        0.08570       -1.91550
H          3.99740       -1.58670       -2.09710
H          3.01390        1.14460       -3.28220
H          2.90800       -1.78530       -4.18250
H          2.25250       -0.27320       -5.06370
H          0.70420       -2.64510       -0.76740
H          2.46940       -2.79510       -0.80090
O          5.38640        1.26550       -1.80660
O          6.28280       -0.70250       -1.96720
