18
TSA8_9_F_NH2_NO2
C          1.28510       -0.02650        0.16260
C          1.63770       -0.76030       -0.89800
F          0.78350        1.22590       -0.00310
H          1.40860       -0.41210        1.16990
N          2.17850       -2.06420       -0.70520
C          4.65490       -0.81760       -3.19960
C          3.56190       -0.03940       -3.16910
C          2.16720       -0.58950       -3.27410
O          1.46090       -0.23540       -2.14180
N          5.96660       -0.27140       -3.08830
H          4.54300       -1.89310       -3.30590
H          3.66300        1.03590       -3.05670
H          2.13770       -1.68690       -3.44140
H          1.68760       -0.11260       -4.15360
H          2.42580       -2.66960       -1.49850
H          2.29100       -2.45080        0.24390
O          6.13910        0.90410       -2.96820
O          7.00560       -1.07750       -3.11110
