21
TSA8_9_Et_Br_CN
C          1.58970       -0.01740        0.03310
C          1.40750       -0.43870        1.43610
C          1.67260       -0.78220       -1.22880
H          1.48920        1.05330       -0.13750
Br         1.38140        1.08720        2.63870
C          2.70720       -4.72260        1.17440
C          2.39490       -3.50770        1.65840
C          1.02440       -2.87000        1.46780
O          0.85550       -1.60110        2.04310
C          4.05410       -5.21870        1.35650
H          1.97900       -5.32730        0.63360
H          3.16410       -2.99140        2.20550
H          0.32960       -3.53820        1.97960
H          0.69930       -2.88730        0.41140
C          3.05550       -0.35300       -1.74650
H          0.97870       -0.53210       -2.05830
H          1.64940       -1.87010       -1.09250
H          3.06340        0.73040       -1.99060
H          3.30170       -0.93160       -2.65600
H          3.89930       -0.52170       -1.06690
N          5.14120       -5.58280        1.52010
