21
TSA8_9_Et_Br_CN
C          2.40460       -1.45460        0.42060
C          1.08090       -0.98900        1.12820
C          2.17250       -1.23060       -1.11090
H          3.21610       -0.80540        0.82470
Br         1.36650        0.80720        1.84420
C          2.78880       -2.95600        0.69350
C          2.17910       -3.48810        1.97580
C          0.70600       -3.13110        1.93010
O          0.60180       -1.76190        2.20900
C          4.23580       -3.21580        0.69850
H          2.34150       -3.61490       -0.07850
H          2.63050       -3.04300        2.89260
H          0.16220       -3.69210        2.71310
H          0.22760       -3.40310        0.95440
C          3.31670       -0.55360       -1.84500
H          1.27340       -0.60230       -1.30550
H          1.93220       -2.19650       -1.60470
H          3.31810        0.52900       -1.59270
H          3.14060       -0.64810       -2.94000
H          4.29170       -1.00880       -1.58890
N          5.36680       -3.46480        0.71180
