18
TSA8_9_CH2F_Cl_OH
C          1.78080       -0.01230       -0.00680
C          1.06560        0.14640        1.11810
C          2.20990       -1.35240       -0.53440
H          2.06660        0.86630       -0.57790
Cl         0.62450        1.78560        1.60910
C          0.09480       -2.55370        4.78970
C         -0.28250       -2.24270        3.54040
C         -0.10040       -0.86280        2.97890
O          0.69350       -0.93280        1.85530
O         -0.07370       -3.80050        5.28280
H          0.54510       -1.80050        5.42960
H         -0.73400       -3.00260        2.90840
H          0.36930       -0.18920        3.72980
H         -1.09820       -0.45580        2.70570
F          3.58860       -1.39120       -0.61690
H          1.78240       -1.49350       -1.54860
H          1.86760       -2.19150        0.10680
H         -0.46690       -4.51590        4.76240
