22
TSA8_9_Me_NH2_CCl3
C          2.06110       -2.04250       -0.46990
C          0.75840       -2.37700        0.22840
C          1.90910       -0.63030       -1.06570
H          2.87330       -2.00180        0.28550
N          0.72660       -2.56350        1.57120
C          2.45990       -3.08290       -1.57610
C          3.77440       -2.63320       -2.19600
C          3.87640       -2.28190       -3.48180
O         -0.27550       -2.46470       -0.41580
C          2.62240       -4.55940       -1.08390
H          1.66480       -3.08220       -2.35560
H          4.66420       -2.58670       -1.57390
H          3.01550       -2.30760       -4.14150
H          4.83460       -1.96330       -3.88020
H          1.11580       -0.61250       -1.84230
H          2.85820       -0.27850       -1.52220
H          1.64090        0.09470       -0.26560
H         -0.16230       -2.78050        2.04490
H          1.58150       -2.48530        2.13830
Cl         3.15060       -5.60360       -2.43630
Cl         3.83330       -4.70140        0.22500
Cl         1.09560       -5.28040       -0.50390
