22
TSA8_9_Me_NH2_CCl3
C          2.14970       -2.25670       -0.33000
C          0.76220       -1.65600       -0.75660
C          3.23410       -1.17010       -0.42090
H          2.10140       -2.53370        0.74560
N         -0.26460       -1.94730        0.24070
C          2.41260       -3.52710       -1.18760
C          2.36040       -3.17190       -2.69120
C          1.33480       -2.06270       -2.97290
O          0.29400       -2.10930       -2.02620
C          3.64550       -4.40380       -0.82710
H          1.52590       -4.17230       -0.99100
H          3.33280       -2.85130       -3.12100
H          0.92940       -2.19380       -3.99690
H          1.80210       -1.05310       -2.96860
H          3.41410       -0.82990       -1.45900
H          4.18890       -1.52880        0.00630
H          2.92840       -0.29070        0.18470
H         -0.35590       -2.98290        0.35800
H          0.00960       -1.52120        1.15470
Cl         3.58370       -5.92670       -1.75840
Cl         5.21610       -3.63490       -1.19340
Cl         3.62200       -4.84880        0.90140
