23
TSA8_9_CBr3_Cl_Et
C          1.44820       -0.29050        0.10140
C          2.06450       -0.82720        1.17560
C          1.95870       -0.36680       -1.32140
H          0.52150        0.24630        0.27050
Cl         3.60130       -1.68240        1.06740
C         -0.76370       -2.64190        4.41760
C          0.31690       -2.04480        3.89650
C          0.23030       -1.09070        2.74000
O          1.52010       -0.71430        2.41380
C         -0.64700       -3.58690        5.58530
H         -1.74650       -2.44150        3.99840
H          1.29650       -2.25380        4.31840
H         -0.36360       -0.20150        3.03380
H         -0.26780       -1.59680        1.88210
Br         0.76370        0.61330       -2.49220
Br         3.71990        0.43100       -1.50730
Br         1.99710       -2.20680       -1.93590
C          0.23430       -4.79520        5.26520
H         -1.66070       -3.94800        5.85900
H         -0.22040       -3.04300        6.45570
H         -0.18340       -5.36100        4.40500
H          0.27920       -5.46650        6.14810
H          1.27090       -4.47970        5.02220
