20
TSA8_9_Cl_CF3_Me
C          1.74370        0.00730       -0.12090
C          1.50870       -0.38240       -1.39870
Cl         2.06740        1.66030        0.39780
H          1.69340       -0.71570        0.68600
C          1.15380       -1.81660       -1.71220
C          2.31340        1.28910       -5.15400
C          3.04290        1.36240       -4.03090
C          2.39120        1.53080       -2.69030
O          1.54180        0.46280       -2.46790
C          2.94780        1.10810       -6.50030
H          1.23010        1.35650       -5.10160
H          4.12660        1.29500       -4.07780
H          1.80960        2.47720       -2.67870
H          3.20040        1.57810       -1.93460
F         -0.08970       -1.85310       -2.31530
F          2.09060       -2.32910       -2.59020
F          1.12160       -2.61830       -0.58340
H          2.56920        0.17030       -6.95770
H          4.05530        1.04770       -6.43170
H          2.67680        1.96430       -7.15160
