18
TSA8_9_Cl_OMe_Br
C          2.44510        0.03620        0.97650
C          1.77920        1.19640        0.27250
Cl         1.23040       -1.06360        1.71700
H          2.99740       -0.55100        0.21220
O          2.55720        2.09640       -0.38550
C          3.45660        0.54700        2.02460
C          2.78480        1.36160        3.10400
C          3.08450        2.64820        3.30640
O          0.56280        1.32480        0.30370
Br         4.41000       -0.93230        2.84830
H          4.22150        1.16120        1.49870
H          2.03420        0.89280        3.73340
H          3.82650        3.15600        2.69770
H          2.58080        3.20530        4.08940
C          2.10400        3.23600       -1.02290
H          2.37650        3.18560       -2.09660
H          2.59600        4.12160       -0.56990
H          1.00400        3.36400       -0.93920
