19
TSA8_9_Br_NH2_Me
C          3.09230       -1.94870        0.17400
C          1.60120       -1.74300        0.32960
Br         3.97580       -0.20950        0.11990
H          3.46860       -2.47000        1.08120
N          0.95740       -2.19320        1.43350
C          3.43060       -2.83680       -1.05270
C          3.06900       -2.16590       -2.36170
C          2.17950       -2.69140       -3.20920
O          0.97000       -1.15910       -0.53890
C          4.91940       -3.20400       -1.07290
H          2.86580       -3.79090       -0.94270
H          3.55140       -1.22980       -2.62940
H          1.67460       -3.62620       -2.98780
H          1.95240       -2.18100       -4.13970
H         -0.05780       -2.05000        1.54080
H          1.46680       -2.68370        2.18230
H          5.55710       -2.30110       -1.17810
H          5.13020       -3.88620       -1.92430
H          5.19560       -3.73030       -0.13420
