15
TSA8_9_H_Br_OH
C          3.07310        0.98450       -1.36330
C          1.57810        0.92490       -1.52110
H          3.36620        0.34840       -0.50020
H          3.52040        0.53670       -2.27680
Br         0.81330        0.27910       -3.15100
C          3.68920        2.40110       -1.21980
C          3.27080        3.18170        0.01200
C          2.05160        3.70450        0.17220
O          0.83830        1.20730       -0.59340
O          5.09070        2.28190       -1.22780
H          3.41820        3.00360       -2.11420
H          4.00890        3.37190        0.78670
H          1.28380        3.59780       -0.58470
H          1.82130        4.27370        1.06710
H          5.35490        1.73380       -0.44190
