15
TSA8_9_H_Br_OH
C          1.98530        0.03830       -0.27090
C          1.43450        0.68910       -1.30700
H          2.45940        0.55860        0.55240
H          1.95930       -1.04610       -0.23460
Br         0.60460       -0.33180       -2.69410
C          4.28840        3.90580       -1.26830
C          3.56710        2.87290       -0.80690
C          2.07320        2.96670       -0.61900
O          1.41960        2.04770       -1.42120
O          5.62620        3.80650       -1.43380
H          3.80430        4.84460       -1.51870
H          4.07100        1.94310       -0.56250
H          1.71720        3.98030       -0.90250
H          1.80410        2.81000        0.44710
H          6.11610        2.99620       -1.23120
