16
TSA8_9_NO2_Br_H
C          1.74960       -1.49560        1.04550
C          1.01970       -0.22040        1.39670
N          1.59830       -1.77380       -0.37710
H          2.83090       -1.32260        1.24210
Br         1.98130        1.26440        2.12330
C          1.36350       -2.70910        1.93950
C         -0.06970       -3.18360        1.86650
C         -1.08880       -2.51590        2.41480
O         -0.17020       -0.09180        1.15840
H          2.00770       -3.55480        1.61320
H          1.61800       -2.50230        3.00180
H         -0.27590       -4.13610        1.38680
H         -0.93420       -1.58530        2.94880
H         -2.09520       -2.91640        2.35110
O          1.96090       -0.96570       -1.17820
O          1.10580       -2.91850       -0.80240
