16
TSA8_9_H_NH2_Br
C          2.22990        0.00910       -0.43440
C          1.50260        0.42990       -1.48540
H          2.72920        0.69690        0.23680
H          2.32730       -1.05170       -0.22290
N          0.86430       -0.52470       -2.31640
C          3.70610        2.77490       -3.18790
C          3.49310        2.74770       -1.86640
C          2.09730        2.81170       -1.31240
O          1.34410        1.75270       -1.78550
Br         5.47870        2.69100       -3.89650
H          2.87180        2.84540       -3.88050
H          4.33590        2.67810       -1.18590
H          1.63100        3.76070       -1.65120
H          2.10680        2.82390       -0.20160
H          0.31990       -0.21190       -3.13330
H          0.95490       -1.53620       -2.13790
