16
TSA8_9_H_NH2_Br
C          2.94990        0.51910       -1.37040
C          1.39550        0.63400       -1.36140
H          3.35440        0.75960       -0.36340
H          3.26700       -0.51680       -1.61690
N          0.83380       -0.21130       -2.40860
C          3.49430        1.54090       -2.36530
C          3.08820        2.95760       -1.92190
C          1.80750        2.93280       -1.06670
O          0.90080        1.96500       -1.54820
Br         5.41980        1.40840       -2.56160
H          3.03300        1.32930       -3.35430
H          3.86940        3.45350       -1.30530
H          1.33780        3.93830       -1.08020
H          2.04480        2.71580        0.00090
H         -0.20540       -0.10540       -2.39560
H          1.03800       -1.20830       -2.17110
