20
TSA8_9_NH2_CH2F_CN
C          2.44920       -1.11210       -1.29350
C          1.28450       -1.87010       -0.68790
N          2.20980        0.33550       -1.11780
H          3.36430       -1.40110       -0.71570
C          1.42650       -2.62790        0.59750
C          2.59000       -1.45330       -2.82650
C          2.00610       -0.34100       -3.64430
C          0.71160       -0.27250       -3.88460
O          0.17110       -1.78320       -1.19580
C          3.96430       -1.75450       -3.26430
H          2.05990       -2.43470       -3.03080
H          2.65450        0.48130       -3.92020
H          0.03580       -1.04630       -3.56380
H          0.31090        0.61170       -4.37880
H          3.08660        0.89240       -1.00670
H          1.48050        0.57830       -0.40750
F          1.88850       -3.90660        0.35500
H          0.43890       -2.68440        1.09800
H          2.11890       -2.09050        1.27990
N          5.01350       -2.00020       -3.66600
