25
TSA8_9_Et_NO2_CCl3
C          1.75690       -0.08320       -0.22210
C          1.36070       -0.21620       -1.52580
C          1.90390        1.14370        0.64800
H          1.99890       -0.99240        0.31970
N          1.29100       -1.53440       -2.08060
C          2.95390        3.85640       -2.37080
C          2.58550        2.56710       -2.33450
C          1.13340        2.17150       -2.32200
O          1.00710        0.79830       -2.37680
C          4.40350        4.26700       -2.43230
H          2.18590        4.62550       -2.37200
H          3.34470        1.79040       -2.33770
H          0.66900        2.58310       -3.24290
H          0.55290        2.59740       -1.48310
C          3.33210        1.25130        1.16520
H          1.21910        1.03280        1.51530
H          1.65920        2.09190        0.16880
H          3.61160        0.33950        1.73510
H          3.41990        2.13010        1.83850
H          4.03500        1.37760        0.31520
O          0.95610       -1.67810       -3.21810
O          1.60170       -2.59880       -1.36970
Cl         5.16400        3.61530       -3.90920
Cl         4.53130        6.04300       -2.47600
Cl         5.29380        3.67460       -1.00660
