17
TSA8_9_I_CH2F_H
C          1.90980       -0.19730       -0.08710
C          1.49130       -1.40300       -0.55010
I          2.40620        1.57370       -1.14400
H          1.99140       -0.05200        0.98610
C          1.15220       -2.48160        0.43840
C          4.03350       -2.69250       -3.66370
C          3.49220       -1.80950       -2.81980
C          2.06780       -1.34050       -2.96350
O          1.33580       -1.73850       -1.86450
H          5.05970       -3.01940       -3.52120
H          3.46660       -3.09870       -4.49470
H          4.08810       -1.43270       -1.99410
H          1.60300       -1.80030       -3.86320
H          2.02190       -0.25380       -3.12560
F         -0.16400       -2.86550        0.27270
H          1.29810       -2.16020        1.49300
H          1.80860       -3.35670        0.25220
