20
TSA8_9_CH2F_I_Me
C          1.36960       -2.00990       -1.21060
C          1.10220       -1.52830        0.19820
C          1.34320       -0.81520       -2.18370
H          2.40010       -2.42820       -1.22730
I          2.57590       -1.75220        1.69360
C          0.39690       -3.16730       -1.59360
C         -1.05250       -2.72720       -1.62150
C         -1.96660       -3.25170       -0.79890
O          0.04240       -0.99600        0.48990
C          0.75350       -3.79910       -2.94620
H          0.53100       -3.96580       -0.82790
H         -1.36590       -1.96790       -2.33140
H         -1.70040       -4.01490       -0.07440
H         -2.99670       -2.91440       -0.84810
F          2.27200        0.13340       -1.79180
H          0.34130       -0.33850       -2.20580
H          1.60640       -1.13760       -3.21090
H          0.61820       -3.08230       -3.78210
H          0.09550       -4.67390       -3.13840
H          1.80610       -4.15400       -2.93890
