20
TSA8_9_CH2F_I_Me
C          1.47470       -2.23570       -1.32340
C          1.09630       -1.78090        0.10060
C          1.52740       -1.00470       -2.24960
H          2.49920       -2.66710       -1.30780
I          1.61740       -3.15920        1.67330
C          0.46560       -3.32660       -1.76920
C         -0.96870       -2.81360       -1.59860
C         -1.15880       -2.33540       -0.15440
O         -0.24030       -1.30560        0.18120
C          0.69930       -3.83600       -3.19580
H          0.59020       -4.19960       -1.09010
H         -1.18050       -1.97950       -2.30100
H         -1.08570       -3.18610        0.55580
H         -2.18960       -1.93580       -0.05390
F          2.46260       -0.10180       -1.77350
H          0.54650       -0.49140       -2.31010
H          1.83950       -1.30000       -3.27160
H          0.53740       -3.03420       -3.94550
H         -0.01100       -4.66010       -3.42080
H          1.73390       -4.22710       -3.29630
