20
TSA8_9_NH2_CH2F_OH
C          2.99890       -1.17710       -0.47500
C          1.48020       -1.56810       -0.52720
N          3.18950        0.24330       -0.78790
H          3.40740       -1.33380        0.54900
C          1.07760       -2.35540        0.71950
C          3.77610       -2.07270       -1.44960
C          3.19950       -1.96250       -2.87230
C          1.67170       -1.78150       -2.84010
O          1.13250       -2.35370       -1.66990
O          5.14430       -1.76560       -1.43540
H          3.62090       -3.11810       -1.09060
H          3.63370       -1.12710       -3.46300
H          1.23170       -2.25790       -3.73990
H          1.37960       -0.70920       -2.90170
H          2.81460        0.49660       -1.72740
H          2.69380        0.82200       -0.07240
F         -0.27580       -2.63490        0.67990
H          1.28910       -1.75920        1.63190
H          1.64480       -3.30980        0.76850
H          5.61090       -2.53660       -1.85160
