20
TSA8_9_CBr3_Me_H
C          1.37550       -0.43390       -0.12390
C          1.93220       -1.59620        0.31840
C          2.04350        0.63050       -0.97470
H          0.34810       -0.22780        0.14390
C          3.35530       -1.98470        0.01290
C         -0.95750       -3.54810        3.46550
C         -0.48930       -3.61720        2.21600
C         -0.10570       -2.39240        1.43850
O          1.22250       -2.48830        1.06980
H         -1.22630       -4.45750        3.99340
H         -1.07930       -2.59470        3.96990
H         -0.38500       -4.58950        1.74330
H         -0.26380       -1.47220        2.04360
H         -0.74360       -2.34650        0.52960
Br         0.78190        2.06920       -1.29930
Br         3.57580        1.42560       -0.08960
Br         2.56020       -0.05540       -2.71470
H          3.58470       -2.96950        0.47250
H          4.06740       -1.25060        0.43500
H          3.51420       -2.08560       -1.07790
