16
TSA8_9_NH2_I_H
C          2.02430       -0.17670        0.08260
C          1.26610       -1.15580        0.59510
N          2.27390       -0.07240       -1.31040
H          2.46000        0.56210        0.74760
I          0.96730       -1.18790        2.70320
C         -0.27220       -5.23710       -1.04240
C         -0.53310       -3.92810       -0.97320
C         -0.12120       -3.09610        0.20580
O          0.71240       -2.08740       -0.22310
H         -0.58530       -5.80720       -1.91090
H          0.25080       -5.75030       -0.24110
H         -1.05950       -3.44930       -1.79390
H          0.40230       -3.71860        0.96480
H         -1.03380       -2.65780        0.66480
H          2.85920        0.69730       -1.66470
H          1.88030       -0.74660       -1.98260
