15
TSA8_9_Cl_CN_Cl
C          2.18960       -1.76960       -0.16470
C          1.91550       -1.65230        1.36120
Cl         3.71620       -0.97070       -0.63170
H          1.38110       -1.28010       -0.75540
C          1.67220       -0.29530        1.84650
C          2.16800       -3.27670       -0.43260
C          0.70820       -3.71970       -0.27850
C          0.02670       -2.97670        0.89600
O          0.97020       -2.59560        1.88260
Cl         2.81370       -3.78290       -2.01540
H          2.78740       -3.79640        0.33840
H          0.13560       -3.44390       -1.19650
H         -0.74940       -3.63830        1.33180
H         -0.50700       -2.06330        0.54240
N          1.47690        0.77990        2.24970
