17
TSA8_9_NO2_CN_I
C          1.73260       -0.03740        0.07510
C          1.54210       -1.18210        0.75360
N          1.80240        0.00510       -1.35100
H          1.76810        0.89920        0.62400
C          1.37550       -1.16550        2.18910
C          0.07650       -5.40950       -0.59930
C          0.29920       -4.12970       -0.89080
C          0.32090       -3.08490        0.16880
O          1.46780       -2.35170        0.07780
I         -0.01160       -6.83690       -2.14460
H         -0.08460       -5.72510        0.42680
H          0.43530       -3.82030       -1.92340
H          0.18710       -3.48910        1.19530
H         -0.52540       -2.40810       -0.05610
O          2.13520        1.01400       -1.88970
O          1.38020       -1.00330       -2.08860
N          1.23810       -1.18270        3.33840
