23
TSA8_9_CBr3_CCl3_Me
C          2.02120        0.00080       -0.04210
C          1.94870       -1.01090        0.88150
C          1.89750        0.14260       -1.55480
H          2.25130        0.97510        0.38500
C          2.26010       -0.64780        2.32930
C          0.98040       -5.30580       -0.79150
C          1.36620       -4.02780       -0.91530
C          0.70460       -2.91060       -0.14990
O          1.63600       -2.32470        0.67360
C          1.67660       -6.38910       -1.55680
H          0.16000       -5.57420       -0.13230
H          2.19470       -3.79780       -1.57470
H         -0.09590       -3.33360        0.49670
H          0.19970       -2.17140       -0.79670
Br         0.40730        1.31960       -1.92970
Br         3.50330        1.04950       -2.14850
Br         1.76340       -1.37110       -2.74610
Cl         2.12820       -2.05850        3.42270
Cl         3.92840       -0.02420        2.46840
Cl         1.12160        0.59120        2.92580
H          2.75110       -6.41750       -1.27880
H          1.58390       -6.20220       -2.64730
H          1.21790       -7.37210       -1.31940
