23
TSA8_9_H_CH2F_Et
C          1.77390        0.13470       -0.04600
C          1.46840        1.39060        0.33510
H          2.16860       -0.60880        0.63290
H          1.61760       -0.18530       -1.07130
C          0.90160        2.35720       -0.66720
C          2.96980        3.50780        3.59520
C          3.36960        2.31480        3.11650
C          2.36870        1.30210        2.64640
O          1.63830        1.85360        1.60620
C          3.89120        4.61090        4.06950
H          1.90420        3.71530        3.64790
H          4.42050        2.05620        3.04960
H          1.68350        1.04180        3.48090
H          2.92020        0.39210        2.34700
F         -0.33800        2.79480       -0.24030
H          0.79340        1.90390       -1.67540
H          1.58200        3.23100       -0.74940
C          5.38650        4.31650        3.94150
H          3.65930        4.82560        5.13420
H          3.66770        5.52000        3.47230
H          5.66430        3.43350        4.55530
H          5.96670        5.19130        4.30200
H          5.65340        4.13460        2.87820
