17
TSA8_9_F_Cl_CH2F
C          3.27480        0.93120       -1.27630
C          1.72610        0.84510       -1.40380
F          3.62870        1.07040        0.05640
H          3.73570       -0.01170       -1.64280
Cl         1.30320       -0.07900       -2.87120
C          3.75200        2.15000       -2.07690
C          3.10120        3.43050       -1.51020
C          1.75910        3.12450       -0.81900
O          1.05940        2.10700       -1.50020
C          5.28010        2.26950       -2.14070
H          3.38370        2.01690       -3.11840
H          3.73340        3.95280       -0.75920
H          1.14870        4.05060       -0.78490
H          1.91190        2.82070        0.24150
F          5.82040        2.43060       -0.87640
H          5.56350        3.14130       -2.76760
H          5.71030        1.35490       -2.60120
