20
TSA8_9_H_I_Et
C          1.69490        0.06570       -0.12130
C          1.44280        1.20670       -0.78100
H          1.78940        0.03010        0.95740
H          1.80070       -0.86570       -0.66720
I          1.24920        1.13640       -2.88140
C          3.64610        3.63880        1.99490
C          2.94290        2.59390        1.53200
C          1.48390        2.71120        1.16750
O          1.28690        2.41520       -0.16960
C          5.10420        3.51580        2.34930
H          3.16780        4.60670        2.11430
H          3.43580        1.63560        1.41110
H          1.12800        3.74810        1.34620
H          0.87000        2.03750        1.80390
C          5.33280        2.52480        3.48980
H          5.48010        4.51180        2.66800
H          5.67730        3.19410        1.45310
H          4.77750        2.84830        4.39590
H          6.41560        2.48120        3.73090
H          4.99890        1.50560        3.20290
