20
TSA8_9_H_I_Et
C          3.11350        1.31680        0.59070
C          1.79830        1.36220       -0.23520
H          2.95260        0.69820        1.49930
H          3.92000        0.83760       -0.00460
I          2.24840        1.78320       -2.28780
C          3.46680        2.74720        1.01880
C          2.31650        3.33010        1.87220
C          0.97790        2.63230        1.56660
O          0.85750        2.35190        0.18880
C          4.85410        2.87730        1.68700
H          3.51060        3.35500        0.08820
H          2.47020        3.24760        2.96680
H          0.14290        3.28410        1.89620
H          0.88130        1.68580        2.14680
C          5.04420        2.03740        2.95470
H          5.03690        3.94660        1.93130
H          5.62690        2.56010        0.95350
H          4.33190        2.32810        3.75150
H          6.07220        2.19560        3.34360
H          4.92650        0.95690        2.73290
