25
TSA8_9_CH2F_Et_NO2
C          1.80520       -0.18620        0.00760
C          1.42720       -1.44900       -0.34780
C          2.01720        1.04620       -0.83080
H          1.97730        0.00350        1.06380
C          1.26440       -2.47640        0.75060
C          3.56290       -2.05570       -4.00620
C          2.92270       -1.32530       -3.07640
C          1.43210       -1.43110       -2.86740
O          1.16310       -1.91910       -1.60640
N          4.97170       -1.97320       -4.19570
H          2.99650       -2.73920       -4.63320
H          3.48920       -0.65040       -2.44550
H          1.00170       -2.15090       -3.59610
H          0.89830       -0.48260       -3.05570
F          3.31700        1.48570       -0.66450
H          1.32870        1.83640       -0.46550
H          1.83190        0.94310       -1.90150
C          2.21170       -3.65300        0.52800
H          0.21630       -2.84470        0.74530
H          1.47010       -2.05120        1.75740
H          2.00310       -4.14390       -0.44700
H          2.07280       -4.40230        1.33520
H          3.26640       -3.30390        0.54040
O          5.64280       -1.24280       -3.53080
O          5.54550       -2.72360       -5.11060
