25
TSA8_9_CH2F_Et_NO2
C          2.82760       -1.00490       -1.19200
C          1.39930       -1.57230       -0.88030
C          2.72190        0.53820       -1.22030
H          3.53130       -1.26340       -0.37090
C          1.32250       -2.41110        0.40350
C          3.31430       -1.66570       -2.51560
C          2.30940       -1.38380       -3.64610
C          0.86250       -1.46860       -3.12560
O          0.80470       -2.27740       -1.96930
N          4.67380       -1.35460       -2.92900
H          3.28400       -2.76500       -2.34030
H          2.45530       -0.40180       -4.14650
H          0.21130       -1.88440       -3.92160
H          0.44920       -0.45840       -2.90280
F          3.94710        1.14990       -1.38960
H          2.31310        0.88800       -0.24790
H          2.04090        0.89380       -2.01760
C          2.12500       -3.71060        0.31930
H          0.25700       -2.66340        0.59250
H          1.68830       -1.80540        1.26000
H          1.75960       -4.34010       -0.51900
H          2.00690       -4.27760        1.26650
H          3.20520       -3.50330        0.17350
O          5.39640       -0.69260       -2.24880
O          5.16240       -1.92500       -4.01030
