23
TSA8_9_I_CH2F_Et
C          2.92650        1.58550       -1.66670
C          1.66100        1.14270       -2.36980
I          2.74970        1.16310        0.43250
H          3.76870        0.95090       -2.01200
C          1.71350        0.05000       -3.39920
C          3.30850        3.07550       -1.90490
C          2.25430        4.01880       -1.35830
C          2.51490        4.87300       -0.36320
O          0.58730        1.65110       -2.08510
C          3.54820        3.41790       -3.39430
H          4.26470        3.25560       -1.36340
H          1.25730        4.01780       -1.78600
H          1.73610        5.53640       -0.00140
H          3.49640        4.91900        0.09810
F          0.45050       -0.21430       -3.90000
H          2.11650       -0.87490       -2.93590
H          2.37390        0.35590       -4.23590
C          4.71730        2.65220       -4.01680
H          3.79200        4.50100       -3.47040
H          2.62660        3.23170       -3.98800
H          5.65160        2.85090       -3.44970
H          4.86190        2.99130       -5.06430
H          4.52560        1.56160       -4.03810
