23
TSA8_9_F_Et_CBr3
C          2.43480       -0.30710       -2.71270
C          1.13210       -1.07420       -2.79780
F          2.55080        0.10000       -1.39180
H          3.28360       -0.99020       -2.92460
C          0.99510       -2.36590       -2.02660
C          2.55090        0.93390       -3.65180
C          3.68660        1.80580       -3.14230
C          3.48430        3.05570       -2.71120
O          0.18480       -0.63340       -3.43240
C          2.82170        0.59530       -5.16040
H          1.60500        1.51590       -3.57730
H          4.69670        1.40780       -3.11890
H          2.49330        3.49920       -2.71240
H          4.32030        3.64670       -2.35230
C         -0.38580       -3.00680       -2.17050
H          1.18330       -2.16890       -0.94960
H          1.76010       -3.08230       -2.39560
H         -1.16970       -2.32300       -1.77970
H         -0.41980       -3.95310       -1.59090
H         -0.59630       -3.23570       -3.23720
Br         2.93040        2.23900       -6.19610
Br         4.50020       -0.36150       -5.41860
Br         1.44990       -0.46140       -6.03730
