17
TSA8_9_NH2_CN_I
C          1.21620       -1.19340       -1.09030
C          1.87890       -2.02480       -0.00910
N          2.26470       -0.43510       -1.77430
H          0.50500       -0.46150       -0.63860
C          1.58410       -1.84590        1.38560
C          0.42890       -2.11610       -2.07690
C         -0.96210       -2.43960       -1.56500
C         -1.21630       -3.06940       -0.41620
O          2.73750       -2.84490       -0.31580
I          0.15860       -1.26760       -4.04830
H          1.00340       -3.05000       -2.26840
H         -1.81770       -2.13550       -2.16370
H         -0.42690       -3.40830        0.24010
H         -2.24790       -3.24560       -0.12540
H          2.79540        0.11840       -1.06150
H          1.81400        0.28250       -2.38190
N          1.35990       -1.68950        2.50780
