17
TSA8_9_NH2_CN_I
C          1.66480       -0.04990        0.09370
C          1.54240       -1.37850        0.25570
N          1.73460        0.54270       -1.19000
H          1.60560        0.60670        0.95540
C          1.35140       -1.94140        1.57120
C         -0.56140       -3.80500       -3.15220
C         -0.21550       -2.71140       -2.47080
C          0.14340       -2.78570       -1.02220
O          1.38250       -2.19480       -0.81440
I         -1.07230       -3.67320       -5.19160
H         -0.59750       -4.77480       -2.66440
H         -0.20630       -1.74380       -2.96480
H          0.13190       -3.82480       -0.63110
H         -0.65040       -2.24240       -0.46740
H          2.69360        0.65060       -1.54720
H          1.21300        1.41760       -1.34300
N          1.19360       -2.42290        2.61060
