20
TSA8_9_Cl_CH2F_CHF2
C          2.03970        1.63320       -1.47840
C          0.81060        1.30350       -2.29110
Cl         1.70860        1.19980        0.22690
H          2.89280        1.00790       -1.82380
C          0.88330        0.28930       -3.39560
C          2.42520        3.12970       -1.60080
C          3.63510        3.42710       -0.74030
C          3.58890        4.30650        0.26580
O         -0.24830        1.86450       -2.04760
C          2.73630        3.52270       -3.05810
H          1.56100        3.74330       -1.25870
H          4.56960        2.91140       -0.94380
H          2.67540        4.84280        0.50290
H          4.47550        4.49460        0.86230
F         -0.34990        0.13890       -4.00600
H          1.20110       -0.68940       -2.97970
H          1.62270        0.62000       -4.15460
F          3.04720        4.86960       -3.12940
F          3.80080        2.78670       -3.55030
H          1.85200        3.34270       -3.70450
