20
TSA8_9_Cl_CH2F_CHF2
C          1.90570        0.07740       -0.22010
C          1.48080        1.02110       -1.08130
Cl         2.14760        0.39520        1.49390
H          2.08940       -0.93570       -0.56420
C          1.24220        0.68030       -2.52630
C          2.42190        4.16520       -2.62110
C          3.01460        3.58940       -1.56450
C          2.22120        3.20610       -0.34560
O          1.23330        2.29300       -0.67000
C          3.20150        4.55030       -3.84230
H          1.35290        4.36010       -2.60250
H          4.08340        3.39540       -1.57750
H          1.74400        4.11970        0.06800
H          2.89980        2.79370        0.42850
F         -0.07650        0.93720       -2.85080
H          1.46270       -0.38670       -2.74460
H          1.89920        1.30600       -3.16500
F          4.18160        5.46660       -3.50820
F          3.78690        3.42980       -4.40160
H          2.51800        5.00960       -4.58750
