14
TSA8_9_I_H_Cl
C          2.87650       -1.06430        0.87070
C          1.39460       -0.91600        1.31500
I          3.06430       -0.92260       -1.27440
H          3.45740       -0.20050        1.26080
H          1.40400       -0.40710        2.30270
C          3.41470       -2.38120        1.43570
C          2.58560       -3.56610        0.91700
C          1.12960       -3.15060        0.63700
O          0.70690       -2.15050        1.53730
Cl         5.15390       -2.61970        1.11000
H          3.28580       -2.33630        2.53940
H          2.98840       -4.00630       -0.02120
H          0.47560       -4.04280        0.72030
H          1.00260       -2.78450       -0.40480
