21
TSA8_9_Me_CBr3_CN
C          1.61700       -0.06440        0.08730
C          1.50440       -1.08110        1.02080
C          1.69770       -0.08480       -1.43200
H          1.64220        0.96090        0.42900
C          1.53190       -0.77520        2.53720
C          0.97110       -4.42840       -2.27340
C          1.39590       -3.84580       -1.14800
C          0.55480       -2.92220       -0.31970
O          1.32890       -2.40280        0.70850
C          1.88410       -5.29100       -2.98080
H         -0.02850       -4.25110       -2.66750
H          2.40370       -4.04960       -0.80800
H         -0.31100       -3.48270        0.10330
H          0.10000       -2.12150       -0.91690
H          1.50020       -1.01940       -1.98210
H          2.75610        0.16610       -1.60590
H          1.12600        0.74210       -1.93440
Br         1.03310        1.04400        3.00890
Br         0.31190       -1.96160        3.47690
Br         3.26370       -1.09140        3.37020
N          2.64440       -5.97790       -3.52050
