21
TSA8_9_CBr3_CF3_OH
C          0.82430       -0.82700        1.11920
C          1.66280       -2.09920        0.77060
C          1.44380        0.57150        0.80800
H         -0.00630       -0.90340        0.38220
C          3.02320       -2.31930        1.45510
C          0.16480       -0.97330        2.52070
C         -0.22250       -2.43930        2.80270
C         -0.33560       -3.24180        1.50430
O          0.89980       -3.31290        0.79470
O          1.01230       -0.52790        3.54570
H         -0.75200       -0.34090        2.50160
H          0.56550       -2.94230        3.40300
H         -1.13520       -2.83300        0.85010
H         -0.63540       -4.27560        1.77600
Br         0.06020        1.93420        0.89160
Br         2.86330        1.17450        1.99800
Br         2.13350        0.60240       -1.00780
F          3.91220       -1.32560        1.10730
F          2.90120       -2.37320        2.82890
F          3.55550       -3.51710        1.01450
H          0.43950       -0.35340        4.33780
