22
TSA8_9_CBr3_OMe_CN
C          2.14500       -1.44880       -0.44900
C          1.03960       -1.56950        0.58620
C          2.12350       -0.06790       -1.28430
H          3.03410       -1.38900        0.21580
O          1.40810       -1.73610        1.87890
C          2.24250       -2.85550       -1.17900
C          1.53880       -2.83220       -2.47320
C          0.21170       -2.85030       -2.53950
O         -0.13430       -1.67270        0.26300
C          3.57160       -3.45070       -1.33810
H          1.77250       -3.63450       -0.52180
H          2.13180       -2.67460       -3.37100
H         -0.38370       -2.99470       -1.65030
H         -0.28020       -2.70030       -3.48690
Br         0.79270        1.19700       -0.61850
Br         3.82990        0.82860       -1.10030
Br         1.79620        0.01010       -3.21460
C          0.97240       -2.79600        2.64260
H          1.40030       -2.70400        3.66080
H          1.34990       -3.74370        2.19610
H         -0.13490       -2.83000        2.70180
N          4.60710       -3.98640       -1.41340
