22
TSA8_9_CBr3_OMe_CN
C          1.55720       -0.10530        0.04760
C          1.23660       -1.35320        0.60150
C          1.72500        0.57400       -1.35990
H          1.60370        0.68450        0.79870
O          1.33480       -1.55710        1.95130
C          2.22440       -4.45970       -1.86260
C          1.98420       -3.15130       -1.78580
C          0.62780       -2.67010       -1.38630
O          0.74990       -2.42550       -0.06710
C          3.58990       -4.90120       -1.85800
H          1.41590       -5.18400       -1.80380
H          2.82200       -2.45720       -1.78800
H         -0.12660       -3.46840       -1.51900
H          0.16300       -1.80160       -1.85710
Br         0.63940        2.17870       -1.67570
Br         3.52860        1.22350       -1.22190
Br         1.69990       -0.26750       -3.11850
C          0.99920       -2.80510        2.49120
H          1.32030       -2.93790        3.54460
H          1.46340       -3.65020        1.92470
H         -0.09330       -2.94200        2.39440
N          4.70210       -5.21550       -1.85360
