26
TSA8_9_Et_Me_CF3
C          2.50670        1.63970        0.33640
C          1.18300        1.63170       -0.51820
C          2.41710        0.49110        1.37770
H          3.35260        1.37830       -0.33910
C          1.47200        1.53430       -2.01460
C          2.70300        3.08950        0.88010
C          1.46160        3.55140        1.67270
C          0.17580        2.95600        1.08770
O          0.33250        2.75430       -0.29570
C          3.99480        3.42240        1.64590
H          2.74160        3.71090       -0.04360
H          1.49040        3.29510        2.75400
H         -0.67180        3.64360        1.28550
H         -0.09370        1.99600        1.58560
C          3.76800       -0.01390        1.89530
H          1.98060       -0.39470        0.86380
H          1.74250        0.75440        2.21790
H          4.39740       -0.35250        1.04490
H          3.59720       -0.88260        2.56590
H          4.33460        0.73120        2.46690
H          2.03720        2.42760       -2.35700
H          0.51600        1.47320       -2.57580
H          2.06270        0.61920       -2.23040
F          5.09680        2.95890        0.94980
F          4.10240        4.79650        1.77240
F          3.98340        2.88960        2.92000
