20
TSA8_9_Et_F_Br
C          1.73750        0.24850        0.02450
C          1.31210        1.41330        0.57560
C          1.94570       -1.11430        0.64010
H          1.93480        0.27840       -1.04490
F          1.15850        2.45340       -0.28480
C          3.45080        2.12040        4.17310
C          2.93740        1.36220        3.19900
C          1.45470        1.13500        3.06870
O          0.99940        1.67430        1.88090
Br         5.33740        2.40960        4.28680
H          2.81050        2.59600        4.91050
H          3.60400        0.90870        2.47470
H          0.91940        1.65500        3.89260
H          1.18400        0.07760        3.18840
C          3.38720       -1.57720        0.46690
H          1.27970       -1.82610        0.10600
H          1.68640       -1.18320        1.69710
H          3.66520       -1.59130       -0.60840
H          3.49670       -2.60510        0.87330
H          4.07930       -0.90410        1.01340
