21
TSA8_9_CH2F_OMe_Cl
C          3.04890       -1.05580        0.14720
C          2.08680       -1.51060        1.22200
C          2.27920       -0.25050       -0.91970
H          3.75900       -0.36420        0.65330
O          2.28400       -1.08230        2.49660
C          3.91810       -2.20780       -0.45010
C          3.20250       -3.16920       -1.37780
C          2.31830       -4.08120       -0.96660
O          1.11630       -2.20070        0.94540
Cl         5.29580       -1.50130       -1.35180
H          4.39080       -2.78270        0.37590
H          3.44610       -3.15040       -2.43690
H          2.06000       -4.19870        0.07670
H          1.85970       -4.74850       -1.68960
F          3.13540        0.31470       -1.84610
H          1.71500        0.57360       -0.43190
H          1.55180       -0.90110       -1.45110
C          1.46950       -1.41390        3.55790
H          1.85370       -0.92520        4.47710
H          1.47040       -2.51430        3.71050
H          0.43300       -1.06000        3.37150
