16
TSA8_9_F_H_NH2
C          1.02750       -0.23360        2.01850
C          1.07710        0.89880        0.98610
F          0.14080       -1.20300        1.57840
H          2.03260       -0.69490        2.12360
H          1.85860        1.65640        1.22230
C          0.56620        0.34990        3.36270
C         -0.76110        1.09540        3.16160
C         -0.58330        2.12930        2.04120
O         -0.19600        1.50290        0.82900
N          0.43840       -0.70000        4.37350
H          1.33100        1.08170        3.70850
H         -1.56360        0.38170        2.87130
H          0.14900        2.91580        2.33380
H         -1.55450        2.64190        1.88050
H         -0.31740       -1.37150        4.10420
H          0.17940       -0.26490        5.28870
