21
TSA8_9_CHF2_Br_OMe
C          1.90130       -0.00500        0.05760
C          1.59380       -0.33090        1.32400
C          1.72930       -0.91020       -1.13760
H          2.32400        0.97740       -0.13170
Br         1.91520        0.93820        2.72270
C          4.01150       -2.38770        3.30270
C          3.25960       -2.40380        2.18840
C          1.76100       -2.58980        2.23090
O          1.06780       -1.54000        1.64450
O          5.36220       -2.21690        3.28780
H          3.53070       -2.51610        4.26730
H          3.71500       -2.28150        1.21110
H          1.38650       -2.73560        3.26680
H          1.53380       -3.51180        1.65650
F          2.96460       -1.12060       -1.72010
F          1.17590       -2.13680       -0.81650
H          1.06650       -0.41090       -1.87290
C          6.13900       -2.01610        2.16300
H          7.20010       -1.91150        2.46790
H          5.82580       -1.08520        1.64320
H          6.05260       -2.88370        1.47450
