21
TSA8_9_CHF2_Br_OMe
C          2.59300       -0.45860        0.94500
C          1.21500       -0.58250        1.62450
C          2.44950       -0.72050       -0.57380
H          2.94920        0.59080        1.03700
Br         1.08680        0.31270        3.35550
C          3.59430       -1.38470        1.67980
C          3.02250       -2.80800        1.77040
C          1.62670       -2.74920        2.40290
O          0.74490       -1.92310        1.65680
O          4.85220       -1.35720        1.02680
H          3.68790       -0.97900        2.71520
H          2.97590       -3.29010        0.77310
H          1.68780       -2.41750        3.46200
H          1.21310       -3.77890        2.42500
F          3.66430       -0.56130       -1.21530
F          1.94560       -1.97560       -0.85770
H          1.74450        0.02640       -0.99780
C          5.84580       -1.96750        1.82420
H          5.85620       -1.57610        2.86560
H          6.83740       -1.72600        1.38980
H          5.73640       -3.07370        1.80890
