20
TSA8_9_OH_NH2_Me
C          3.05200        0.76030        1.59750
C          1.62020        1.25710        1.64550
O          3.23160        0.01800        0.41650
H          3.68450        1.68040        1.57450
N          1.14510        2.03680        0.64580
C          3.46200       -0.08400        2.83450
C          2.68380       -1.38130        2.89840
C          1.89290       -1.68590        3.93180
O          0.88800        0.97330        2.58220
C          4.96180       -0.40290        2.80640
H          3.27680        0.52690        3.74730
H          2.77290       -2.09160        2.08070
H          1.77650       -1.00670        4.77020
H          1.35330       -2.62720        3.94100
H          4.14440        0.21490        0.07940
H          0.17540        2.38580        0.66990
H          1.74550        2.29440       -0.15090
H          5.55240        0.53740        2.78110
H          5.22580       -1.01620        1.91820
H          5.24730       -0.96600        3.72090
