20
TSA8_9_OH_NH2_Me
C          3.15750        0.32380        1.40830
C          1.66830        0.80340        1.47170
O          3.23310       -0.93470        0.78940
H          3.77960        1.04320        0.82460
N          1.60710        2.25360        1.32730
C          3.68990        0.22340        2.84630
C          2.83830       -0.78310        3.64890
C          1.39010       -0.82750        3.13100
O          0.98760        0.44490        2.67880
C          5.17750       -0.13680        2.90990
H          3.56090        1.22640        3.31160
H          3.22690       -1.82490        3.60360
H          0.72050       -1.17710        3.94370
H          1.28010       -1.56610        2.30420
H          3.03330       -0.78840       -0.17190
H          0.60300        2.54240        1.36140
H          1.95840        2.50420        0.37460
H          5.77740        0.62470        2.36790
H          5.36280       -1.13130        2.45020
H          5.51740       -0.16340        3.96740
