24
TSA8_9_OH_CBr3_Et
C          3.09620        1.77050       -1.67210
C          1.65590        1.64910       -2.22710
O          3.16390        1.13120       -0.41860
H          3.84450        1.31520       -2.35090
C          1.27570        0.25470       -2.76450
C          3.41680        3.28180       -1.49550
C          2.13940        4.06940       -1.10070
C          1.10590        3.15530       -0.43400
O          0.67520        2.08780       -1.28070
C          4.01300        3.94960       -2.76280
H          4.17380        3.37720       -0.68570
H          1.62400        4.45560       -2.00960
H          0.22100        3.77690       -0.18320
H          1.50430        2.74950        0.51970
H          3.74370        0.33060       -0.51260
Br         1.23010       -1.10210       -1.37530
Br        -0.49180        0.34930       -3.55470
Br         2.48760       -0.31620       -4.17030
C          5.39130        3.41600       -3.16480
H          4.14220        5.03510       -2.55480
H          3.31280        3.84070       -3.62020
H          6.10940        3.53780       -2.32660
H          5.76480        3.99450       -4.03580
H          5.35960        2.35200       -3.46840
