17
TSA8_9_OH_NO2_Br
C          2.84090        1.01480       -0.29320
C          1.53100        1.34390       -0.99160
O          2.58170        0.07940        0.72490
H          3.51850        0.56140       -1.05190
N          1.36600        1.15580       -2.33400
C          3.60940        2.23740        0.27930
C          2.95960        2.92670        1.46030
C          1.87890        3.70500        1.35970
O          0.59010        1.75110       -0.32520
Br         5.37080        1.62820        0.84720
H          3.79770        2.98160       -0.52530
H          3.41580        2.82630        2.44140
H          1.39920        3.89450        0.40780
H          1.47820        4.18590        2.24650
H          3.35170       -0.54530        0.76310
O          0.31800        1.40750       -2.84900
O          2.34950        0.70250       -3.08220
