17
TSA8_9_OH_NO2_Br
C          2.86670        1.05990       -0.17240
C          1.42940        1.39620       -0.69510
O          2.80690        0.54030        1.13120
H          3.36490        0.30790       -0.82700
N          1.37450        1.21730       -2.13420
C          3.67910        2.35640       -0.16950
C          3.01860        3.39750        0.75100
C          1.50130        3.16520        0.86130
O          0.97330        2.71660       -0.36640
Br         5.53290        2.06860        0.33270
H          3.67050        2.75500       -1.20760
H          3.42230        3.37600        1.78670
H          1.00920        4.11150        1.16690
H          1.26040        2.42640        1.65880
H          2.40310       -0.36350        1.05620
O          1.07110        2.12170       -2.85260
O          1.59750        0.02880       -2.65360
