17
TSA8_9_CN_NO2_H
C          2.69980        1.40250       -0.12030
C          1.82960        1.69300       -1.35030
C          2.05340        0.42410        0.78760
H          3.61810        0.95680       -0.52050
N          1.54300        0.70790       -2.24790
C          3.10010        2.69080        0.65390
C          2.16260        2.98600        1.79620
C          0.90200        3.36990        1.61040
O          1.46240        2.83830       -1.58560
H          4.09260        2.49330        1.11000
H          3.24270        3.57170       -0.01550
H          2.52790        2.80930        2.80520
H          0.51460        3.54670        0.61600
H          0.24940        3.49560        2.46580
N          1.55030       -0.30820        1.53170
O          0.95840        0.96630       -3.25640
O          1.95410       -0.52570       -2.04310
