28
TSA8_9_Et_OMe_OMe
C          1.92820        0.07230       -0.14020
C          1.66380        1.35810       -0.44410
C          1.81960       -0.53400        1.23660
H          2.21890       -0.59610       -0.94680
O          1.73650        1.72510       -1.74940
C          4.43790        3.57210        0.83090
C          3.11430        3.75600        0.79690
C          2.15390        2.80150        1.44770
O          1.29220        2.26310        0.50480
O          5.25010        4.46760        0.22020
H          4.85540        2.70750        1.34140
H          2.71030        4.62280        0.28220
H          1.55810        3.37560        2.18690
H          2.69280        2.00220        1.99560
C          3.17370       -1.06550        1.69050
H          1.09370       -1.37340        1.19350
H          1.43710        0.18650        1.98580
H          3.54690       -1.83200        0.97770
H          3.07420       -1.53140        2.69350
H          3.91110       -0.23670        1.75300
C          1.53480        3.00600       -2.21270
H          1.59760        3.00340       -3.32020
H          2.32380        3.68160       -1.82870
H          0.53180        3.37490       -1.90980
C          6.62310        4.35320        0.18640
H          6.95830        4.30350       -0.86990
H          6.98220        3.44440        0.71780
H          7.07490        5.24760        0.66380
