28
TSA8_9_Et_OMe_OMe
C          2.95270        1.07430        0.13830
C          1.60360        1.60830       -0.39260
C          2.64840        0.02050        1.24140
H          3.46190        0.49210       -0.66220
O          1.51840        1.87210       -1.78260
C          3.85780        2.25380        0.60410
C          3.03110        3.49090        1.02810
C          1.60870        3.12280        1.46110
O          0.84350        2.48600        0.44000
O          4.72220        2.61340       -0.46230
H          4.44540        1.89300        1.47330
H          2.92720        4.19740        0.18070
H          1.09620        4.06970        1.72850
H          1.61920        2.51210        2.38340
C          3.87940       -0.77610        1.68850
H          1.93570       -0.72180        0.81740
H          2.16980        0.46340        2.13270
H          4.34850       -1.28040        0.81730
H          3.56520       -1.55470        2.41530
H          4.63400       -0.13970        2.18950
C          1.82740        3.20980       -2.09120
H          1.59670        3.37440       -3.16350
H          2.90930        3.40990       -1.97340
H          1.19210        3.92880       -1.53010
C          5.88770        3.24310        0.02620
H          6.52420        3.51670       -0.84030
H          6.48480        2.55290        0.66200
H          5.64480        4.18620        0.56260
