17
TSA8_9_NH2_CN_H
C          1.18700       -1.62120       -0.25310
C          2.20410       -1.65100        0.86160
N          1.70960       -0.89520       -1.41540
H          0.29920       -1.08280        0.14390
C          1.79560       -1.27810        2.19450
C          0.78550       -3.06550       -0.64540
C         -0.68620       -3.14400       -0.95400
C         -1.58250       -2.93470        0.02290
O          3.30220       -2.14530        0.68600
H          1.41120       -3.41790       -1.49570
H          0.94930       -3.77290        0.19800
H         -1.02770       -3.39150       -1.95280
H         -1.25370       -2.70920        1.03700
H         -2.64630       -2.99650       -0.17070
H          1.02060       -0.93190       -2.20090
H          1.86140        0.10750       -1.15900
N          1.43830       -0.94300        3.24190
