17
TSA8_9_NH2_CN_H
C          1.13880       -1.74460       -0.63930
C          1.47840       -2.02560        0.86130
N          2.20210       -1.00540       -1.31370
H          0.18530       -1.17630       -0.75310
C          1.43920       -0.85200        1.74070
C          0.93910       -3.12870       -1.25650
C         -0.32850       -3.73230       -0.63570
C         -0.49320       -3.28820        0.83490
O          0.77040       -3.12310        1.44820
H          0.84560       -3.12030       -2.36200
H          1.81910       -3.76520       -0.99850
H         -1.22990       -3.36420       -1.17700
H         -1.10570       -4.03320        1.38110
H         -1.05470       -2.32580        0.90150
H          2.00710       -1.01600       -2.34300
H          2.12030       -0.00160       -1.02810
N          1.41780        0.05620        2.45730
