25
TSA8_9_OMe_OMe_CH2F
C          2.69470        0.27640       -1.28490
C          2.02860       -1.06730       -1.44580
O          1.79850        1.15520       -0.61690
H          3.62330        0.05390       -0.70430
O          2.63020       -2.15540       -0.89530
C          3.11280        0.85880       -2.67140
C          2.00670        1.70130       -3.27820
C          1.42060        1.41510       -4.44230
O          0.98410       -1.17430       -2.07340
C          4.39140        1.70130       -2.56730
H          3.38420        0.00980       -3.34150
H          1.68340        2.59330       -2.74670
H          1.70650        0.54420       -5.01960
H          0.64270        2.07210       -4.82120
C          2.32970        1.63080        0.59520
H          3.21630        2.27200        0.41720
H          2.55230        0.79590        1.29350
H          1.55900        2.26780        1.07850
C          2.19660       -3.45560       -1.04170
H          2.22050       -3.74590       -2.11350
H          1.16970       -3.56820       -0.63660
H          2.88000       -4.12650       -0.47970
F          4.21530        2.80640       -1.75620
H          4.69320        2.04430       -3.58050
H          5.22020        1.07680       -2.16510
