25
TSA8_9_OMe_OMe_CH2F
C          1.53940        0.01800        0.07500
C          1.64880       -0.93700       -0.86960
O          1.26870        1.31010       -0.21820
H          1.66910       -0.27530        1.11540
O          1.91120       -2.19870       -0.44200
C          3.73680        0.98930       -4.08010
C          3.03680        0.90760       -2.93880
C          1.60270        0.45840       -2.92920
O          1.49860       -0.71820       -2.21170
C          5.17960        1.39290       -4.08090
H          3.26770        0.74760       -5.02940
H          3.51610        1.14560       -1.99230
H          1.26270        0.24970       -3.96720
H          0.92480        1.24150       -2.53660
C          1.11730        2.29350        0.73750
H          1.88160        3.08060        0.57530
H          1.23150        1.89530        1.77000
H          0.10830        2.74330        0.64270
C          2.31940       -3.20900       -1.28410
H          3.31070       -2.95530       -1.71510
H          1.58390       -3.36370       -2.10440
H          2.41610       -4.14960       -0.70440
F          5.31860        2.66200       -3.55110
H          5.56530        1.38860       -5.12190
H          5.76900        0.67100       -3.47840
