24
TSA8_9_OH_CCl3_Et
C          2.73180       -0.08210        1.03390
C          2.12060        1.30650        1.14670
O          1.67890       -1.00870        0.97420
H          3.28250       -0.14090        0.07030
C          2.27820        2.34660        0.05290
C          3.70110       -0.44210        2.21230
C          3.03920       -0.30160        3.57550
C          1.98330       -1.02890        3.95530
O          1.43160        1.56810        2.12250
C          5.00290        0.39710        2.20170
H          4.01320       -1.50510        2.10540
H          3.44240        0.41130        4.29100
H          1.55850       -0.88500        4.94350
H          1.53690       -1.77160        3.30550
H          2.04740       -1.84150        0.57880
Cl         3.98300        2.80620       -0.15970
Cl         1.65770        1.70180       -1.48770
Cl         1.36380        3.83710        0.42710
C          5.90130        0.11390        0.99300
H          5.60250        0.12620        3.09960
H          4.76960        1.48090        2.26580
H          6.16820       -0.96400        0.95980
H          6.83740        0.70390        1.08480
H          5.42030        0.39180        0.03690
