24
TSA8_9_OH_CCl3_Et
C          1.88720        0.20140        0.10520
C          1.48020        1.20170        0.92850
O          2.22440       -1.01990        0.56200
H          1.94260        0.35000       -0.96610
C          1.07770        2.56720        0.38840
C          4.31560       -0.66540        2.80990
C          3.46450        0.31740        3.13920
C          1.97190        0.13130        3.12460
O          1.39290        1.06960        2.28830
C          5.80480       -0.45140        2.82200
H          3.93560       -1.64200        2.52340
H          3.84790        1.29230        3.42590
H          1.60620        0.31800        4.15500
H          1.65460       -0.89740        2.85640
H          2.50120       -1.71760       -0.04710
Cl         2.14280        3.79740        1.11400
Cl         1.16860        2.76410       -1.38980
Cl        -0.59790        2.91650        0.88040
C          6.38230       -0.67230        1.42940
H          6.26630       -1.17020        3.53250
H          6.06110        0.57950        3.15280
H          6.17410       -1.70690        1.08230
H          7.48200       -0.51880        1.45340
H          5.93760        0.05030        0.71120
