22
TSA8_9_Br_NO2_Et
C          3.25730        0.06010        1.67540
C          1.90300        0.69980        1.41550
Br         3.63290       -1.13460        0.17710
H          4.03800        0.84800        1.66920
N          1.77210        2.04230        1.21340
C          3.29560       -0.62560        3.07470
C          2.43160       -1.87160        3.12150
C          1.37330       -1.97810        3.93010
O          0.90820       -0.01450        1.38100
C          4.72580       -0.92950        3.59470
H          2.90160        0.12610        3.79770
H          2.67590       -2.71340        2.48130
H          1.08520       -1.16820        4.59220
H          0.78520       -2.89060        3.93110
O          0.69530        2.51670        1.00910
O          2.82410        2.83430        1.22990
C          5.53820       -1.96560        2.81630
H          4.63530       -1.29620        4.64130
H          5.30700        0.01790        3.62580
H          5.01430       -2.94280        2.78570
H          6.51400       -2.11430        3.32500
H          5.75800       -1.61660        1.79090
