22
TSA8_9_Br_NO2_Et
C          3.14990       -0.12010        1.70670
C          1.68670        0.42510        1.60880
Br         3.26550       -1.69410        0.55960
H          3.86650        0.61950        1.28800
N          1.69100        1.86230        1.41140
C          3.46900       -0.38890        3.19440
C          2.46600       -1.40440        3.77820
C          1.08230       -1.24640        3.12490
O          0.87160        0.09350        2.73860
C          4.94340       -0.69580        3.55950
H          3.25600        0.57680        3.70770
H          2.76470       -2.46680        3.66480
H          0.29940       -1.57020        3.84110
H          0.97380       -1.91250        2.23900
O          1.13730        2.58660        2.18310
O          2.24360        2.37090        0.33150
C          5.54340       -1.98350        2.99170
H          5.01280       -0.75230        4.66810
H          5.57790        0.15430        3.22650
H          4.96480       -2.87500        3.30520
H          6.57950       -2.09700        3.37490
H          5.61210       -1.94100        1.88930
