23
TSA8_9_CF3_CCl3_CHF2
C          2.28720       -1.60250        1.30280
C          1.26070       -0.46450        1.65970
C          2.26900       -1.87110       -0.22420
H          3.31820       -1.25660        1.53630
C          1.91260        0.81720        2.22190
C          1.99070       -2.83060        2.21450
C          0.51380       -3.25470        2.11760
C         -0.40190       -2.02660        1.99620
O          0.23260       -0.89610        2.55020
C          2.93550       -4.03700        2.08940
H          2.13030       -2.45020        3.25190
H          0.28550       -3.95450        1.28530
H         -1.35800       -2.22960        2.52100
H         -0.68290       -1.82660        0.93700
F          3.28580       -2.73610       -0.57910
F          1.06440       -2.40190       -0.64160
F          2.47970       -0.68810       -0.90840
Cl         2.73590        0.49040        3.77240
Cl         3.09140        1.51040        1.07690
Cl         0.65660        2.05000        2.50420
F          2.77820       -4.69290        0.88300
F          4.25070       -3.63300        2.23340
H          2.70200       -4.76220        2.89780
