17
TSA8_9_CN_I_NO2
C          1.63110        0.00800        0.05650
C          1.89980       -1.30440        0.11040
C          1.71250        0.82870       -1.12620
H          1.32670        0.50350        0.96370
I          1.70130       -2.32540        1.94320
C          3.75030       -2.22580       -3.92660
C          2.99100       -1.46930       -3.12400
C          1.95120       -2.07370       -2.22750
O          2.37370       -2.03270       -0.92360
N          4.75830       -1.66010       -4.75480
H          3.61580       -3.30400       -3.92410
H          3.13890       -0.39570       -3.10510
H          1.82410       -3.15440       -2.43320
H          0.97850       -1.56650       -2.38540
N          1.76650        1.51970       -2.05300
O          4.94820       -0.48070       -4.77730
O          5.54170       -2.45380       -5.44980
