17
TSA8_9_CN_I_NO2
C          3.11570       -0.62900       -1.37080
C          2.04220       -1.47540       -0.63600
C          2.45920        0.63110       -1.75410
H          3.96850       -0.38390       -0.70040
I          2.22730       -1.62730        1.48870
C          3.62070       -1.45780       -2.58620
C          2.41560       -1.87160       -3.43520
C          1.32450       -2.49680       -2.54870
O          1.80060       -2.73610       -1.23680
N          4.63080       -0.84650       -3.43130
H          4.08060       -2.37850       -2.16000
H          1.99330       -0.98910       -3.96950
H          1.03600       -3.45810       -3.01590
H          0.40940       -1.85930       -2.52280
N          1.92410        1.61330       -2.07040
O          5.03560        0.25560       -3.22680
O          5.14240       -1.55210       -4.41970
