21
TSA8_9_OMe_CF3_Cl
C          1.51510        0.03320        0.06360
C          1.30400       -1.28860        0.15200
O          1.55300        0.61800       -1.15710
H          1.63020        0.64170        0.95350
C          1.23370       -1.99960        1.49110
C         -0.42870       -3.16860       -3.73190
C         -0.41010       -2.36470       -2.66450
C          0.12690       -2.81330       -1.33690
O          1.17530       -1.98080       -1.00990
Cl        -1.04340       -2.58320       -5.26930
H         -0.06160       -4.18800       -3.66980
H         -0.78060       -1.34700       -2.75470
H          0.48940       -3.86270       -1.38050
H         -0.69670       -2.74640       -0.59660
C          1.62230        1.98090       -1.32500
H          1.63710        2.21020       -2.41040
H          2.54550        2.38060       -0.85540
H          0.72820        2.46220       -0.87280
F          0.00650       -2.60860        1.66200
F          2.22220       -2.96510        1.53750
F          1.42990       -1.12560        2.54910
