22
TSA8_9_Me_OMe_CN
C          2.56910       -1.20990        0.81510
C          1.70600       -0.20370        1.58050
C          1.98540       -1.42140       -0.60300
H          3.56370       -0.72320        0.71140
O          2.26390        0.93980        2.06080
C          2.71590       -2.60550        1.55430
C          1.93080       -2.66050        2.83770
C          0.64360       -3.01810        2.82000
O          0.51710       -0.42600        1.76710
C          4.08360       -3.08730        1.80860
H          2.30380       -3.40020        0.89920
H          2.38470       -2.32170        3.76490
H          0.05610       -2.98700        3.72740
H          0.16730       -3.29900        1.88290
H          1.17410       -2.18440       -0.59800
H          2.77800       -1.76920       -1.29880
H          1.54220       -0.48950       -1.01410
C          1.76590        1.63580        3.14890
H          2.24260        2.63620        3.20330
H          2.01350        1.08470        4.08240
H          0.66430        1.77120        3.08670
N          5.13050       -3.53000        2.04180
