21
TSA8_9_H_CCl3_OMe
C          3.06520        0.99450        1.61980
C          1.50120        0.95150        1.55420
H          3.45940        0.06410        1.15580
H          3.48360        1.85000        1.04930
C          0.84120        2.28620        1.15480
C          3.52420        1.01600        3.08140
C          2.96880       -0.23100        3.80510
C          1.61700       -0.66640        3.21590
O          0.90590        0.46080        2.75720
O          4.93910        1.05620        3.13680
H          3.07340        1.93300        3.52340
H          3.65220       -1.10580        3.74890
H          1.03190       -1.20980        3.98620
H          1.76730       -1.38660        2.37620
Cl         1.41080        2.81740       -0.45080
Cl        -0.92350        2.06100        1.03870
Cl         1.16370        3.57650        2.34360
C          5.36980        1.47080        4.41530
H          4.95180        2.46380        4.69330
H          6.47270        1.58760        4.38980
H          5.13900        0.70180        5.18450
