24
TSA8_9_CH2F_Et_CN
C          1.60180       -0.02670        0.06670
C          1.65860       -0.81560        1.18630
C          1.62340       -0.43680       -1.39580
H          1.53490        1.05180        0.19340
C          1.81620       -0.17390        2.56350
C          1.03300       -5.24510       -0.55130
C          1.57420       -4.21100        0.09050
C          0.80850       -3.02810        0.57920
O          1.71910       -2.16910        1.15700
C          1.89760       -6.32590       -0.95190
H         -0.03010       -5.29640       -0.78440
H          2.64070       -4.22230        0.27810
H          0.06760       -3.34180        1.35260
H          0.24280       -2.54760       -0.23220
F          2.92460       -0.21260       -1.76770
H          0.98190        0.19980       -2.06690
H          1.37290       -1.48580       -1.64310
C          1.27740       -1.03620        3.71230
H          1.35430        0.83420        2.61890
H          2.90600       -0.05590        2.74260
H          0.19320       -1.21550        3.57040
H          1.43510       -0.52410        4.69130
H          1.81350       -2.00960        3.75210
N          2.58150       -7.19990       -1.27850
