24
TSA8_9_CH2F_Et_CN
C          1.44280       -1.95160       -0.30680
C          1.95980       -1.84500        1.19080
C          1.99620       -0.99720       -1.39640
H          0.37050       -1.67480       -0.24710
C          1.94620       -0.48430        1.95460
C          1.40590       -3.44830       -0.78580
C          1.05330       -4.42850        0.34760
C          0.46550       -3.66280        1.51870
O          1.50060       -2.87760        2.06620
C          2.58150       -3.95340       -1.52100
H          0.57570       -3.49580       -1.51970
H          1.97450       -4.90620        0.76390
H          0.12430       -4.37570        2.29360
H         -0.42870       -3.05870        1.24230
F          3.35480       -0.77970       -1.27190
H          1.46640       -0.02140       -1.37230
H          1.79070       -1.41970       -2.40980
C          1.41790       -0.61420        3.40910
H          1.34690        0.28670        1.42910
H          2.99640       -0.12710        2.02680
H          0.34400       -0.90480        3.40720
H          1.51670        0.33750        3.97240
H          1.98390       -1.38750        3.97800
N          3.47670       -4.39640       -2.10680
