16
TSA8_9_CN_CN_H
C          1.66110        0.09260        0.04060
C          1.63310        1.05050        1.00630
C          1.76820       -1.34420        0.25450
H          1.46180        0.34900       -0.99780
C          1.25760        2.41130        0.66580
C          2.34710       -1.44450        4.82170
C          2.18370       -1.19690        3.52360
C          1.19950       -0.18230        3.03260
O          1.85620        0.78880        2.31500
H          3.07080       -2.18730        5.13460
H          1.76650       -0.91140        5.56750
H          2.77870       -1.74280        2.80120
H          0.66360        0.31320        3.86940
H          0.42160       -0.66860        2.41330
N          1.84240       -2.50000        0.32060
N          0.95760        3.49560        0.38900
