16
TSA8_9_CN_CN_H
C          2.50160       -0.15820        1.44730
C          1.31290        0.83610        1.49100
C          2.11100       -1.27750        0.57570
H          3.43240        0.30400        1.05020
C          1.39050        2.03230        0.64220
C          2.74280       -0.69070        2.88080
C          1.41110       -1.15210        3.48730
C          0.34050       -0.04530        3.32270
O          0.90260        1.14570        2.80310
H          3.50450       -1.49890        2.92880
H          3.11570        0.14170        3.52040
H          1.06200       -2.07940        2.97810
H         -0.10070        0.16320        4.31580
H         -0.49740       -0.39070        2.66930
N          1.77600       -2.16410       -0.08830
N          1.41520        2.98310       -0.01710
