19
TSA8_9_I_OMe_CN
C          2.57790       -1.27860        0.76930
C          1.56800       -0.70380        1.72370
I          2.03360       -0.72960       -1.26220
H          3.53300       -0.75500        0.98080
O          1.99290        0.21480        2.61630
C          2.72300       -2.80450        1.06130
C          1.92170       -3.58040        0.06270
C          0.64780       -3.90010        0.26830
O          0.42570       -1.13940        1.77830
C          4.10670       -3.30400        1.05330
H          2.38910       -3.02110        2.10330
H          2.36860       -3.78590       -0.90740
H          0.15380       -3.65650        1.20220
H          0.09310       -4.37870       -0.52890
C          2.04500       -0.05950        3.96180
H          2.42500        0.83400        4.49540
H          2.75600       -0.89860        4.13140
H          1.04410       -0.33570        4.35430
N          5.17860       -3.74180        1.05950
