19
TSA8_9_I_OMe_CN
C          1.67490       -0.06240        0.05560
C          1.56640       -0.57900        1.32150
I          1.69310       -0.84260       -1.91740
H          1.60670        1.04300       -0.04530
O          1.95370        0.23970        2.32340
C          2.93120       -4.30500        1.76950
C          2.42680       -3.56490        0.77600
C          1.04920       -2.96260        0.87910
O          1.13170       -1.84660        1.67430
C          4.33460       -4.63630        1.76880
H          2.31250       -4.59650        2.61770
H          3.05760       -3.34320       -0.08350
H          0.35910       -3.70920        1.30190
H          0.64410       -2.66300       -0.09340
C          2.04190       -0.25360        3.60530
H          2.41140        0.50290        4.31620
H          2.72400       -1.14030        3.66240
H          1.02720       -0.57760        3.90380
N          5.47140       -4.89650        1.73490
