19
TSA8_9_I_OMe_CN
C          2.81290       -1.36150        0.73380
C          1.44290       -0.93180        1.33060
I          2.69420       -1.25130       -1.42060
H          3.59840       -0.63200        1.02640
O          1.56110        0.13010        2.26730
C          3.10970       -2.77640        1.25620
C          2.01680       -3.73950        0.78550
C          0.62850       -3.06910        0.88050
O          0.63020       -2.00620        1.81700
C          4.46280       -3.27130        0.98220
H          3.04440       -2.75450        2.35680
H          2.16410       -4.08920       -0.26210
H         -0.10820       -3.84140        1.18160
H          0.29120       -2.69010       -0.11140
C          1.89220       -0.33520        3.56170
H          2.25350        0.52380        4.16280
H          2.73540       -1.05000        3.57110
H          0.99720       -0.75260        4.07080
N          5.52190       -3.69440        0.78660
