23
TSA8_9_CHF2_CCl3_CHF2
C          2.19710       -0.98040       -1.89920
C          0.92230       -1.81120       -1.85640
C          1.92860        0.34370       -1.14270
H          2.99050       -1.52490       -1.34070
C          0.84960       -3.10260       -1.06030
C          2.68870       -0.73010       -3.36670
C          3.98380        0.05510       -3.36500
C          4.08720        1.26020       -3.93350
O         -0.06970       -1.40700       -2.44740
C          2.93540       -2.02350       -4.17020
H          1.90240       -0.15520       -3.90680
H          4.85970       -0.37480       -2.88640
H          3.23760        1.72720       -4.42190
H          5.03420        1.78960       -3.90980
F          3.08550        1.08610       -0.99300
F          0.98160        1.10930       -1.80090
H          1.55290        0.11830       -0.12180
Cl         2.04350       -4.29020       -1.63960
Cl         1.17530       -2.76950        0.65970
Cl        -0.76650       -3.85710       -1.17340
F          3.89500       -2.81180       -3.55850
F          1.77020       -2.75090       -4.32860
H          3.29650       -1.75890       -5.18760
