23
TSA8_9_CHF2_CCl3_CHF2
C          2.60140       -1.33020       -1.98470
C          1.06890       -0.99480       -1.93110
C          3.36050       -0.35780       -1.05550
H          2.77470       -2.35080       -1.57760
C          0.20770       -2.04140       -1.20030
C          3.05510       -1.34640       -3.47490
C          2.61940       -0.06770       -4.21400
C          1.22450        0.38440       -3.75440
O          0.51670       -0.70930       -3.21160
C          4.53190       -1.67850       -3.74450
H          2.46910       -2.17440       -3.93570
H          3.32390        0.78740       -4.12060
H          0.67340        0.81400       -4.61610
H          1.29560        1.20860       -3.00590
F          4.68450       -0.72780       -0.91960
F          3.29150        0.94720       -1.50620
H          2.91290       -0.39680       -0.04060
Cl         0.21980       -3.59620       -2.07750
Cl         0.78320       -2.30900        0.46680
Cl        -1.47510       -1.46310       -1.10240
F          5.36950       -0.65830       -3.33260
F          4.88380       -2.85570       -3.10850
H          4.67920       -1.81250       -4.83680
