22
TSA8_9_CN_CBr3_OMe
C          2.63400        1.54710        0.26780
C          1.65540        1.80760       -0.91390
C          2.00320        0.45720        1.09340
H          3.56490        1.07710       -0.08880
C          1.61830        1.08740       -2.25090
C          2.82800        2.90990        1.16950
C          1.90330        2.79940        2.34020
C          0.60090        3.02350        2.13040
O          0.88950        2.75720       -0.85430
O          4.05730        3.63050        1.38160
H          2.39370        3.70680        0.53080
H          2.22450        2.22760        3.20190
H          0.24930        3.50310        1.22310
H         -0.12810        2.63740        2.82040
N          1.58030       -0.37780        1.79460
Br         2.65570       -0.53590       -2.40280
Br        -0.22070        0.65020       -2.72570
Br         2.25560        2.33570       -3.59100
C          5.01660        3.18450        2.32190
H          5.38290        4.04780        2.94220
H          5.90530        2.87620        1.73640
H          4.68660        2.40980        3.03920
