19
TSA8_9_NO2_CN_NH2
C          2.81830       -1.22690       -0.68750
C          1.42680       -1.57940       -0.08180
N          2.68560        0.04130       -1.39870
H          3.58340       -1.10130        0.11460
C          1.52820       -1.81470        1.36400
C          3.26020       -2.42300       -1.56640
C          2.24230       -2.61950       -2.67900
C          0.83100       -2.71840       -2.07470
O          0.83100       -2.73680       -0.65370
N          4.62650       -2.33660       -2.07770
H          3.22810       -3.32760       -0.91470
H          2.29360       -1.78600       -3.41590
H          0.44570       -3.69940       -2.42330
H          0.13840       -1.94400       -2.47350
O          3.35110        0.97250       -1.07110
O          1.67850        0.24420       -2.22800
N          1.62330       -1.95980        2.51130
H          4.72230       -1.58590       -2.79460
H          4.84810       -3.25500       -2.53400
