21
TSA8_9_CN_Me_CH2F
C          2.90530        1.27870        0.32140
C          1.65040        1.64820       -0.47400
C          2.46610        0.13130        1.15210
H          3.69360        0.95180       -0.39260
C          1.55620        1.43660       -1.95610
C          3.38570        2.52020        1.18470
C          2.80040        2.41000        2.57470
C          1.61920        2.91640        2.89510
O          0.66310        2.06970        0.11270
C          4.89800        2.84940        1.33910
H          3.01130        3.42050        0.64900
H          3.31140        1.77770        3.30200
H          1.05270        3.48820        2.17350
H          1.21090        2.70780        3.87590
N          2.04670       -0.75560        1.76640
H          2.27270        2.08370       -2.49790
H          0.52690        1.66990       -2.30740
H          1.75780        0.36950       -2.18920
F          5.55740        2.00070        2.21270
H          4.97480        3.87970        1.76990
H          5.44100        2.88420        0.37200
