21
TSA8_9_CN_Me_CH2F
C          1.67570        0.05670       -0.02900
C          1.50330        1.32130       -0.48990
C          1.79810       -0.33740        1.35490
H          1.62480       -0.76380       -0.74680
C          1.35170        1.53410       -1.96550
C          3.94540        3.81670        1.89990
C          3.24530        2.69290        1.67690
C          1.74340        2.69800        1.57780
O          1.37080        2.44070        0.27700
C          5.44310        3.80480        2.01580
H          3.43180        4.76870        1.99580
H          3.76690        1.75060        1.54990
H          1.34300        3.70280        1.84470
H          1.28470        1.98580        2.29210
N          1.89810       -0.71320        2.44520
H          1.83770        2.48360       -2.29080
H          0.27390        1.61400       -2.16920
H          1.78680        0.70180       -2.55830
F          5.82860        3.01350        3.08290
H          5.81280        4.83770        2.19100
H          5.90730        3.41870        1.08450
