20
TSA8_9_Me_CCl3_H
C          2.65850       -1.07640       -0.28890
C          1.22220       -1.63180       -0.08630
C          2.61990        0.16920       -1.19410
H          3.07950       -0.68340        0.66110
C          0.93720       -2.38710        1.23480
C          3.60250       -2.17020       -0.82300
C          2.89950       -3.18980       -1.73190
C          1.55110       -2.68390       -2.24480
O          0.64450       -2.30120       -1.21380
H          4.01340       -2.75120        0.03080
H          4.47980       -1.71050       -1.32590
H          2.69010       -4.11590       -1.15790
H          1.08840       -3.51810       -2.81260
H          1.67770       -1.87150       -2.98100
H          2.23630       -0.01090       -2.21000
H          3.64180        0.59440       -1.29120
H          1.97500        0.94430       -0.72720
Cl         1.80560       -3.93460        1.38350
Cl         1.35190       -1.37160        2.64130
Cl        -0.80850       -2.73100        1.34210
