23
TSA8_9_Me_CH2F_CHF2
C          2.76740        0.55440       -1.40520
C          1.53320       -0.32620       -1.44100
C          2.86800        1.22770       -0.02490
H          3.65280       -0.11110       -1.51240
C          1.67730       -1.81100       -1.61700
C          2.77540        1.54090       -2.61780
C          1.64350        2.54700       -2.55450
C          0.68140        2.59470       -3.48140
O          0.41980        0.16540       -1.31960
C          4.11030        2.29290       -2.78970
H          2.66490        0.91250       -3.53170
H          1.61010        3.25970       -1.73590
H          0.67300        1.90500       -4.32000
H         -0.11020        3.33220       -3.40210
H          2.00670        1.90310        0.16000
H          3.80970        1.79900        0.08030
H          2.87200        0.45040        0.76910
F          0.43920       -2.42960       -1.62090
H          2.28430       -2.22510       -0.78490
H          2.18850       -2.02160       -2.57960
F          4.35120        3.17200       -1.74980
F          5.16090        1.39770       -2.88770
H          4.07430        2.88460       -3.72990
