20
TSA8_9_I_CF3_Me
C          1.89070       -0.15360       -0.15180
C          1.48640       -0.72030       -1.30840
I          2.16330        1.92980        0.13550
H          2.06620       -0.75810        0.73170
C          1.23880       -2.20980       -1.40120
C          2.42740       -1.17490       -4.84930
C          3.01910       -0.37230       -3.95210
C          2.22630        0.64480       -3.18050
O          1.24640        0.03670       -2.41270
C          3.19750       -2.19320       -5.63470
H          1.35760       -1.09600       -5.02240
H          4.08950       -0.44100       -3.77680
H          1.73980        1.33170       -3.90480
H          2.91040        1.24380       -2.54890
F         -0.07310       -2.42710       -1.77770
F          2.07410       -2.76180       -2.35240
F          1.46420       -2.85620       -0.19720
H          2.78710       -3.20270       -5.42430
H          4.27780       -2.18660       -5.37480
H          3.09040       -1.97740       -6.71800
