20
TSA8_9_I_CF3_Me
C          2.66810       -1.29460       -2.22150
C          1.27970       -0.75380       -1.74090
I          4.24340       -0.16900       -1.27060
H          2.82700       -2.33720       -1.86960
C          0.32190       -1.88790       -1.35890
C          2.72100       -1.23360       -3.75850
C          2.48850        0.21060       -4.24240
C          1.54500        0.96850       -3.29340
O          0.62510        0.07830       -2.70240
C          4.00010       -1.82850       -4.35350
H          1.86910       -1.84610       -4.12760
H          3.42160        0.80880       -4.33310
H          1.01000        1.75810       -3.85980
H          2.11340        1.50220       -2.49860
F         -0.86730       -1.35010       -0.90210
F          0.06050       -2.69190       -2.45400
F          0.87300       -2.65580       -0.34880
H          4.11570       -2.88340       -4.02640
H          4.89490       -1.25390       -4.03520
H          3.94470       -1.80930       -5.46290
