21
TSA8_9_I_OMe_CBr3
C          1.87250        0.06280       -0.08870
C          1.83150       -1.15400        0.49810
I          1.61720        0.63610       -2.11790
H          2.04690        0.92140        0.55310
O          2.01400       -1.18310        1.84300
C          4.08230       -3.82500       -1.91590
C          3.40040       -2.70360       -1.63270
C          1.90850       -2.71400       -1.44330
O          1.61830       -2.34140       -0.15060
C          5.58110       -3.83290       -2.05210
H          3.54330       -4.76220       -2.03560
H          3.93150       -1.76510       -1.50840
H          1.51010       -3.73980       -1.59600
H          1.39160       -2.08060       -2.18180
C          2.22240       -2.34820        2.55010
H          2.32130       -2.10680        3.62790
H          3.16410       -2.82990        2.20670
H          1.37220       -3.04950        2.41150
Br         6.19620       -5.62340       -2.46860
Br         6.15380       -2.64280       -3.47190
Br         6.40440       -3.28470       -0.38250
