21
TSA8_9_I_OMe_CBr3
C          3.42190       -1.31780       -0.33380
C          1.98470       -1.49280        0.23220
I          3.35070        0.41290       -1.60660
H          4.11660       -1.05930        0.49170
O          1.85950       -1.22260        1.61510
C          3.84860       -2.65420       -1.00090
C          2.79820       -3.08910       -2.04540
C          1.36960       -2.74490       -1.58650
O          1.30580       -2.67660       -0.17740
C          5.30800       -2.76660       -1.52680
H          3.78390       -3.40230       -0.17910
H          2.95250       -2.65820       -3.05770
H          0.66490       -3.51090       -1.97020
H          1.03630       -1.77650       -2.03080
C          2.29670       -2.32750        2.37660
H          2.34730       -2.01720        3.44000
H          3.32130       -2.65580        2.09710
H          1.57030       -3.16640        2.31140
Br         5.66790       -4.60550       -2.04470
Br         5.71280       -1.67000       -3.07910
Br         6.58500       -2.32890       -0.12970
