18
TSA8_9_NO2_NH2_Br
C          2.11440        0.25510       -0.10160
C          1.74060        0.15900       -1.41770
N          1.83050        1.25280        0.88390
H          2.72690       -0.56720        0.26460
N          2.17890       -1.00000       -2.11630
C          1.37230        4.60570       -1.71030
C          1.62840        3.30040       -1.83100
C          0.51100        2.30830       -2.00580
O          1.00210        1.03150       -2.17350
Br         2.80130        5.85600       -1.49150
H          0.35140        4.97520       -1.73520
H          2.65720        2.95270       -1.80370
H         -0.03550        2.57790       -2.93420
H         -0.24490        2.33880       -1.19980
O          2.30560        1.12440        1.97110
O          1.00450        2.24760        0.68480
H          1.93230       -1.12400       -3.10900
H          2.74530       -1.73190       -1.66160
