15
TSA8_9_CN_I_I
C          2.39110       -1.60120       -0.39120
C          1.32840       -1.52470        0.73200
C          1.95250       -0.64100       -1.42460
H          3.39610       -1.30690       -0.00620
I          1.85750       -0.37550        2.46430
C          2.43390       -3.05160       -0.90630
C          1.02360       -3.51230       -1.25930
C          0.05180       -3.22020       -0.09540
O          0.73900       -2.76810        1.05910
I          3.79640       -3.43510       -2.49730
H          2.78710       -3.68150       -0.06960
H          0.66420       -3.00640       -2.18240
H         -0.48560       -4.16190        0.13870
H         -0.72570       -2.48340       -0.40580
N          1.57580        0.09180       -2.23920
