19
TSA8_9_Cl_CF3_NH2
C          3.01490        1.65680        0.43630
C          1.44890        1.66640        0.44450
Cl         3.60760        0.06070        0.99730
H          3.40610        1.77390       -0.59700
C          0.87410        2.35530       -0.79960
C          3.51840        2.79930        1.33350
C          2.97420        2.64050        2.76820
C          1.59950        1.94970        2.76340
O          0.88050        2.29190        1.59970
N          4.97670        2.91740        1.31710
H          3.09240        3.73830        0.91730
H          3.63920        2.04700        3.43270
H          1.03390        2.25060        3.66910
H          1.70190        0.84250        2.82760
F         -0.50640        2.29300       -0.76070
F          1.26140        3.68270       -0.84730
F          1.30960        1.71080       -1.94320
H          5.41570        2.07770        1.75830
H          5.25850        3.76200        1.86590
