21
TSA8_9_NH2_NH2_CBr3
C          1.79700       -0.02580       -0.13210
C          1.51370       -0.54130       -1.35340
N          2.00230        1.35470        0.13090
H          1.83590       -0.70150        0.71790
N          1.23940       -1.92990       -1.45750
C          2.73930        1.55210       -5.33400
C          2.89640        0.78340       -4.24450
C          2.34200        1.17150       -2.90530
O          1.45370        0.19350       -2.49950
C          3.29550        1.14710       -6.67450
H          2.19680        2.49010       -5.25270
H          3.43880       -0.15530       -4.31780
H          1.81010        2.14600       -2.96010
H          3.20170        1.25920       -2.20670
H          2.20890        1.65370        1.09460
H          1.86680        2.08570       -0.57730
H          1.01570       -2.34110       -2.37530
H          1.26000       -2.54620       -0.63130
Br         2.88010        2.49870       -7.99970
Br         5.22430        0.95670       -6.58540
Br         2.51390       -0.53140       -7.25470
