21
TSA8_9_NH2_NH2_CBr3
C          2.58480       -0.21540       -2.57100
C          1.30990        0.14310       -1.73070
N          3.80080        0.12550       -1.82660
H          2.61300       -1.31290       -2.74390
N          0.38590       -0.98660       -1.67480
C          2.50350        0.51770       -3.93340
C          2.36170        2.03810       -3.70130
C          1.49570        2.34000       -2.46550
O          0.59970        1.27990       -2.22060
C          3.60410        0.16530       -4.97090
H          1.54220        0.18470       -4.38610
H          3.32590        2.57800       -3.58750
H          0.93660        3.28250       -2.63830
H          2.11460        2.52610       -1.55930
H          3.82750       -0.42170       -0.93570
H          3.84680        1.13970       -1.58780
H          0.10540       -1.25530       -2.64640
H          0.86190       -1.79900       -1.22060
Br         3.24260        1.07230       -6.65150
Br         5.40050        0.66390       -4.41660
Br         3.60080       -1.73860       -5.36050
