20
TSA8_9_OMe_Cl_NH2
C          0.56910       -1.13800       -1.09670
C          1.37440       -1.08150        0.18240
O          1.37450       -0.75520       -2.19990
H         -0.32740       -0.47900       -1.00950
Cl         0.85550       -0.04900        1.50560
C          0.04830       -2.57100       -1.34400
C         -0.85090       -3.02180       -0.21100
C         -0.55940       -4.08410        0.54510
O          2.39180       -1.74470        0.30420
N         -0.68820       -2.62300       -2.60850
H          0.92740       -3.25010       -1.43230
H         -1.75950       -2.46280       -0.00520
H          0.33970       -4.66760        0.37290
H         -1.22720       -4.37620        1.34900
C          1.56640        0.64490       -2.21830
H          2.03780        0.91830       -3.18440
H          2.26060        0.95930       -1.40920
H          0.60570        1.20400       -2.16910
H         -1.53860       -2.01480       -2.55830
H         -0.99340       -3.60690       -2.79350
