20
TSA8_9_OMe_Cl_NH2
C          0.43820       -1.13330       -1.29790
C          0.96810       -1.19240        0.16130
O          1.44210       -0.69880       -2.19740
H         -0.44460       -0.45040       -1.31480
Cl        -0.11990       -0.42080        1.35880
C         -0.04560       -2.52880       -1.74660
C         -0.78010       -3.17400       -0.57590
C          0.25960       -3.41630        0.54250
O          1.35020       -2.49250        0.56840
N         -0.89060       -2.43340       -2.93650
H          0.83250       -3.17240       -1.98760
H         -1.58030       -2.47820       -0.23810
H          0.70720       -4.40860        0.32460
H         -0.23590       -3.49000        1.53360
C          1.64470        0.69360       -2.07530
H          2.32440        1.01930       -2.88880
H          2.13900        0.93930       -1.11050
H          0.70070        1.26820       -2.20710
H         -1.75560       -1.88660       -2.72100
H         -1.17600       -3.39510       -3.23280
