20
TSA8_9_CH2F_Br_CHF2
C          1.55340       -1.65800        1.77040
C          1.30650       -0.18330        1.53430
C          1.39260       -2.42520        0.44390
H          2.61390       -1.76510        2.08720
Br         2.71040        1.08250        1.82430
C          0.66150       -2.18180        2.94320
C         -0.81950       -2.08770        2.63370
C         -1.64350       -1.31160        3.34490
O          0.21990        0.21730        1.14600
C          0.99460       -3.62280        3.37900
H          0.89730       -1.53750        3.82170
H         -1.23080       -2.66920        1.81410
H         -1.27860       -0.71410        4.17430
H         -2.69890       -1.27080        3.09580
F          2.24190       -1.89600       -0.51280
H          0.35140       -2.35710        0.06590
H          1.66150       -3.49140        0.56680
F          0.66870       -4.55020        2.40610
F          2.33750       -3.73620        3.69220
H          0.40620       -3.87090        4.28860
