20
TSA8_9_CH2F_Br_CHF2
C          1.86720       -0.00900        0.06020
C          1.15060       -0.01780        1.19360
C          2.20800       -1.25010       -0.71640
H          2.21610        0.94070       -0.33440
Br         0.78240        1.66870        2.04720
C         -0.14940       -3.22190        4.33010
C         -0.41220       -2.71530        3.11480
C         -0.16070       -1.27180        2.79080
O          0.69770       -1.18850        1.71570
C         -0.40480       -4.66330        4.65050
H          0.25600       -2.58370        5.11150
H         -0.82570       -3.35610        2.34050
H          0.27540       -0.74200        3.66680
H         -1.12830       -0.79320        2.52630
F          3.58110       -1.36740       -0.81290
H          1.78000       -1.16230       -1.73720
H          1.80180       -2.17050       -0.24780
F         -1.74460       -4.95790        4.47150
F          0.35970       -5.47320        3.83100
H         -0.13260       -4.86240        5.70760
