20
TSA8_9_CH2F_Br_CHF2
C          1.39890       -1.71270        1.91090
C          1.04030       -0.21830        1.78670
C          1.25830       -2.37720        0.52780
H          2.46900       -1.80300        2.19980
Br         1.70540        0.89950        3.24300
C          0.50920       -2.33330        3.02550
C         -0.96760       -2.02620        2.74540
C         -1.14340       -0.51320        2.56630
O         -0.33810       -0.01190        1.51000
C          0.72420       -3.83730        3.26990
H          0.77680       -1.82330        3.97810
H         -1.31730       -2.55290        1.83270
H         -0.93800        0.02390        3.51710
H         -2.20780       -0.31500        2.32280
F          2.07930       -1.73700       -0.38440
H          0.21600       -2.32900        0.15210
H          1.57820       -3.43670        0.56970
F          0.31240       -4.60150        2.19290
F          2.05750       -4.09380        3.53510
H          0.12520       -4.15010        4.15180
