17
TSA8_9_CHF2_F_F
C          1.67960       -0.46110        1.58780
C          0.99590        0.73670        0.96960
C          1.53580       -1.68820        0.66360
H          2.76310       -0.21100        1.63090
F          1.72950        1.83660        0.65660
C          1.25770       -0.74870        3.06010
C         -0.18320       -1.15070        3.28050
C         -1.20340       -0.29180        3.19680
O         -0.19090        0.71480        0.68520
F          2.05830       -1.76930        3.54580
H          1.47060        0.14280        3.68960
H         -0.39880       -2.17590        3.56820
H         -1.04580        0.75510        2.96510
H         -2.21530       -0.63300        3.38880
F          2.28530       -2.75020        1.13730
F          0.21310       -2.08200        0.55390
H          1.91220       -1.43350       -0.35050
