17
TSA8_9_CHF2_F_F
C          1.84050        0.03550        0.04440
C          1.14500        0.44400        1.11810
C          2.10840       -1.40250       -0.32580
H          2.24410        0.79490       -0.61930
F          0.97970        1.78100        1.31840
C         -0.25430       -1.47680        5.11310
C         -0.58010       -1.28140        3.83150
C         -0.14610       -0.05820        3.07840
O          0.60900       -0.44170        1.99240
F         -0.66910       -2.59930        5.75570
H          0.34080       -0.74920        5.65670
H         -1.17730       -2.02750        3.31540
H          0.45120        0.61990        3.72840
H         -1.05150        0.48530        2.73130
F          3.47350       -1.61020       -0.37560
F          1.55150       -2.30420        0.56370
H          1.68070       -1.59480       -1.33150
