21
TSA8_9_Me_CH2F_OH
C          1.74580        0.11350        0.04870
C          1.47590        1.20230        0.82450
C          1.95930       -1.32300        0.43230
H          1.79840        0.26710       -1.02630
C          1.24560        2.52390        0.13960
C          4.27240        1.18990        3.95130
C          3.50120        0.60660        3.02180
C          2.00680        0.50910        3.17660
O          1.39020        1.25440        2.18950
O          5.60960        1.29510        3.78610
H          3.82830        1.59840        4.85380
H          3.95770        0.20700        2.12050
H          1.69440        0.93810        4.15270
H          1.65490       -0.53130        3.20940
H          1.84410       -1.56530        1.48790
H          2.97240       -1.64050        0.11140
H          1.21160       -1.94060       -0.11000
F         -0.01640        2.99200        0.45160
H          1.33770        2.46140       -0.96560
H          2.00200        3.25000        0.50510
H          6.06190        0.97100        2.99390
