21
TSA8_9_Me_CH2F_OH
C          2.70050        0.59280        0.98230
C          1.29500        1.17830        1.35470
C          2.58620       -0.90020        0.63180
H          3.09650        1.08710        0.06620
C          0.99830        2.45160        0.56340
C          3.67050        0.85670        2.14730
C          3.12430        0.26850        3.46010
C          1.59110        0.38100        3.51820
O          1.15140        1.47500        2.74490
O          4.95370        0.36220        1.86780
H          3.71320        1.96650        2.25670
H          3.39870       -0.79710        3.61890
H          1.27280        0.50150        4.57390
H          1.09620       -0.55150        3.16510
H          2.21230       -1.50970        1.47680
H          3.57840       -1.29870        0.33170
H          1.89070       -1.03030       -0.22460
F         -0.27290        2.90370        0.86580
H          1.04890        2.24230       -0.52600
H          1.73630        3.24220        0.81780
H          5.57720        0.82590        2.48580
