23
TSA8_9_Et_OH_NH2
C          2.45990       -1.27270        1.03680
C          1.14870       -0.73050        1.69430
C          2.33990       -1.17200       -0.50880
H          3.30000       -0.60170        1.32710
O          1.47130        0.17750        2.70540
C          2.70680       -2.68950        1.60710
C          1.51030       -3.60690        1.29880
C          0.18480       -2.82700        1.36690
O          0.29850       -1.73450        2.25080
N          3.95980       -3.28970        1.15890
H          2.75460       -2.57720        2.71560
H          1.57030       -4.10110        0.30480
H         -0.62180       -3.51060        1.70200
H         -0.13610       -2.46380        0.36600
C          3.64170       -1.45210       -1.26170
H          2.05550       -0.12460       -0.75570
H          1.54980       -1.83590       -0.90970
H          4.44570       -0.77380       -0.90550
H          3.48250       -1.26900       -2.34540
H          3.96280       -2.50490       -1.15230
H          1.14930        1.05140        2.36810
H          4.75430       -2.67400        1.44810
H          4.08600       -4.21260        1.63510
