20
TSA8_9_CN_CH2F_NH2
C          1.64140        0.08520       -0.01990
C          1.54340        1.40490        0.32140
C          1.81970       -1.04120        0.87060
H          1.53580       -0.19340       -1.06280
C          1.37570        2.40380       -0.78340
C          2.74690        1.96530        4.29640
C          2.03100        0.99630        3.70960
C          0.96790        1.30750        2.70490
O          1.53040        1.90450        1.59420
N          3.74490        1.65430        5.25290
H          2.56100        3.00700        4.04840
H          2.20790       -0.04300        3.96110
H          0.20000        1.97480        3.16340
H          0.42610        0.39310        2.41380
N          1.96070       -1.96910        1.54920
F          2.03720        3.58760       -0.50300
H          0.29410        2.61610       -0.83920
H          1.71890        2.00990       -1.76500
H          3.94810        0.67860        5.51660
H          4.27670        2.41420        5.70020
