20
TSA8_9_CN_CH2F_NH2
C          2.62180        0.80170        1.49280
C          1.34960        1.42580        0.84060
C          2.36980       -0.65480        1.60050
H          3.53350        0.94120        0.85930
C          1.53580        2.21060       -0.45610
C          2.80970        1.45380        2.89020
C          1.54290        1.22990        3.73830
C          0.28600        1.40670        2.87430
O          0.58230        2.20150        1.74920
N          4.02340        1.05910        3.61870
H          2.90440        2.54290        2.67650
H          1.50020        0.20050        4.16490
H         -0.50270        1.88410        3.48730
H         -0.12660        0.42370        2.54100
N          2.19420       -1.79470        1.69530
F          2.30730        3.33930       -0.25030
H          0.52880        2.53440       -0.80590
H          1.98330        1.58610       -1.25660
H          3.82930        0.26600        4.27370
H          4.29850        1.86200        4.23700
