17
TSA8_9_F_CBr3_I
C          2.04610        2.15830       -0.09300
C          0.99870        2.40600       -1.15630
F          1.56120        1.15700        0.72950
H          2.98230        1.78890       -0.56410
C          1.23050        2.02230       -2.60680
C          2.35220        3.42360        0.74910
C          3.38920        3.16000        1.81860
C          3.18280        2.31850        2.83770
O         -0.08270        2.86480       -0.81640
I          3.06190        5.05210       -0.46310
H          1.42230        3.78140        1.24200
H          4.33820        3.68650        1.78010
H          2.24990        1.77850        2.95140
H          3.95750        2.17400        3.58390
Br         1.55220        0.11430       -2.72580
Br        -0.31590        2.42500       -3.71620
Br         2.75220        2.94000       -3.37810
