17
TSA8_9_F_CBr3_I
C          1.82080        0.18440       -0.18770
C          1.59860        1.43700       -0.65100
F          2.00730       -0.08320        1.13090
H          1.82780       -0.67230       -0.84760
C          1.33060        1.72240       -2.12000
C          2.35230        5.18060        1.08400
C          3.00080        4.02800        1.27790
C          2.26350        2.72440        1.35680
O          1.57950        2.52570        0.17030
I          3.41160        7.00110        0.96290
H          1.27110        5.19900        0.98180
H          4.08230        4.03170        1.37710
H          1.54140        2.76130        2.20010
H          3.01290        1.93020        1.54650
Br         1.33600        0.18580       -3.32050
Br        -0.39710        2.58260       -2.29230
Br         2.68170        2.95500       -2.76090
