17
TSA8_9_F_CBr3_I
C          2.91900        2.15130       -0.41130
C          1.38850        1.82050       -0.44080
F          3.55780        1.22780        0.39920
H          3.37300        2.08150       -1.42140
C          0.76580        1.80860       -1.85030
C          3.12480        3.55430        0.16900
C          2.49790        3.65250        1.56920
C          1.25470        2.75420        1.67760
O          0.61890        2.65960        0.42190
I          5.18450        4.13530        0.20890
H          2.59600        4.27240       -0.49140
H          3.19390        3.35550        2.38340
H          0.55980        3.16720        2.43730
H          1.53380        1.73570        2.03910
Br         1.63130        0.48670       -2.97900
Br        -1.10340        1.30610       -1.72680
Br         0.86830        3.54430       -2.71430
