15
TSA8_9_I_CN_I
C          1.70580       -0.06220        0.07080
C          1.64240       -1.34620        0.52100
I          1.85370        0.55950       -1.95860
H          1.47740        0.78870        0.71890
C          1.28430       -1.62460        1.88890
C          1.17070       -4.18420       -3.15540
C          1.35650       -3.02410       -2.52190
C          0.73760       -2.72000       -1.19960
O          1.74390       -2.42390       -0.29530
I          2.13310       -4.52250       -5.00370
H          0.54310       -4.96700       -2.73970
H          1.98790       -2.27200       -2.97410
H          0.12180       -3.57520       -0.82750
H          0.03810       -1.86500       -1.31460
N          0.99520       -1.82300        2.99170
