18
TSA8_9_Br_CCl3_CN
C          1.61510       -0.01490        0.03410
C          1.52880       -0.35330        1.44190
Br         1.73960       -1.11050       -1.49820
H          1.51050        1.01510       -0.25520
C          1.62330        0.79230        2.48400
C          2.50870       -4.33320        2.43470
C          2.30520       -3.50500        1.40340
C          1.00610       -2.74570        1.29160
O          1.06440       -1.55550        2.01010
C          3.84360       -4.78770        2.72000
H          1.70550       -4.57850        3.12490
H          3.13400       -3.26080        0.74770
H          0.22580       -3.32910        1.79440
H          0.61910       -2.64870        0.26110
Cl         3.14160        1.75180        2.44890
Cl         0.28870        1.93430        2.24400
Cl         1.49790        0.14940        4.15190
N          4.92800       -5.13550        2.92330
