18
TSA8_9_Br_CCl3_CN
C          2.86950       -1.51040        1.33730
C          1.50450       -0.77570        1.53670
Br         3.14390       -1.75490       -0.58270
H          3.72460       -0.89250        1.67380
C          1.56240        0.41810        2.52400
C          2.81600       -2.82950        2.11550
C          1.71440       -3.70470        1.52540
C          0.44790       -2.87500        1.24830
O          0.44450       -1.64740        1.95450
C          4.08780       -3.55770        2.20140
H          2.54190       -2.58780        3.16180
H          2.02590       -4.18580        0.56720
H         -0.41000       -3.49330        1.58550
H          0.30050       -2.68490        0.16280
Cl         2.91820        1.53500        2.19160
Cl         0.06720        1.36820        2.35150
Cl         1.68000       -0.12800        4.22090
N          5.07330       -4.15790        2.29080
