21
TSA8_9_NO2_CCl3_NH2
C          2.53240       -1.31540        1.38370
C          1.75800       -0.00940        1.44490
N          2.57040       -1.81010        0.01550
H          3.57750       -1.10830        1.71130
C          2.43730        1.27260        1.87790
C          1.97530       -2.36790        2.38330
C          0.54510       -2.78760        2.09860
C         -0.44550       -2.56340        2.96740
O          0.57510        0.00400        1.13440
N          2.84280       -3.54710        2.39950
H          2.02710       -1.90170        3.39420
H          0.30960       -3.29610        1.17010
H         -0.26370       -2.06280        3.91310
H         -1.45500       -2.88370        2.73040
O          3.61830       -1.92800       -0.54470
O          1.46000       -2.08010       -0.63760
Cl         3.07530        1.09700        3.53310
Cl         3.78430        1.64730        0.77230
Cl         1.31080        2.65980        1.86570
H          2.79770       -4.04450        1.48030
H          2.52260       -4.20500        3.14750
