21
TSA8_9_NO2_CCl3_NH2
C          2.21600       -0.43240        0.11770
C          1.80110       -0.02250        1.36520
N          1.75250       -1.50020       -0.71560
H          3.01780        0.13080       -0.34000
C          2.45920        1.19010        2.02810
C          1.84090       -3.01180        3.44640
C          1.01980       -2.93000        2.38950
C          0.11100       -1.74420        2.20760
O          0.83090       -0.56860        2.16810
N          2.69050       -4.13080        3.62790
H          1.85950       -2.21300        4.18270
H          0.99770       -3.73320        1.65940
H         -0.55790       -1.69770        3.09270
H         -0.57500       -1.82750        1.34800
O          2.28850       -1.67070       -1.76770
O          0.71930       -2.24550       -0.42250
Cl         3.18550        0.66850        3.57030
Cl         3.74660        2.03650        1.10980
Cl         1.20090        2.40060        2.38690
H          2.69970       -4.90950        2.95270
H          3.30890       -4.17330        4.45040
