20
TSA8_9_CCl3_H_CHF2
C          1.75240       -1.53860        1.03220
C          0.77280       -0.38390        1.00670
C          2.22570       -1.85170       -0.42870
H          2.66180       -1.18760        1.57120
H         -0.19060       -0.49400        0.51940
C          1.12400       -2.67640        1.92350
C         -0.22670       -3.16560        1.43460
C         -1.34860       -2.96070        2.13320
O          1.05700        0.68100        1.53220
C          2.02210       -3.89580        2.19720
H          0.98090       -2.19520        2.91960
H         -0.29950       -3.71090        0.50180
H         -1.33530       -2.42660        3.07830
H         -2.29660       -3.33070        1.75670
Cl         0.93080       -2.46260       -1.49330
Cl         2.85150       -0.35700       -1.18960
Cl         3.60270       -2.98290       -0.48440
F          2.14770       -4.70820        1.08600
F          3.27030       -3.49750        2.64140
H          1.55290       -4.51320        2.99360
