20
TSA8_9_CCl3_H_CHF2
C          1.57410       -1.56760        1.15690
C          0.29960       -0.69790        0.93410
C          2.32520       -1.71030       -0.21260
H          2.26730       -1.01030        1.82490
H         -0.24920       -0.95720       -0.00060
C          1.15610       -2.86210        1.96000
C         -0.28360       -3.24360        1.61210
C         -1.19460       -2.08170        2.08430
O         -0.59210       -0.78790        2.02290
C          2.08990       -4.08100        1.94000
H          1.11190       -2.56500        3.03470
H         -0.36450       -3.40730        0.51840
H         -1.39700       -2.27250        3.15930
H         -2.17060       -2.10150        1.55460
Cl         1.41590       -2.65680       -1.42580
Cl         2.61740       -0.09020       -0.91490
Cl         3.95160       -2.42350       -0.04050
F          2.19140       -4.63310        0.67710
F          3.34190       -3.74490        2.42220
H          1.67310       -4.86090        2.61300
