21
TSA8_9_Me_CN_Me
C          2.61090       -1.09510       -1.10570
C          1.28310       -1.61510       -0.47230
C          2.40350        0.37910       -1.49610
H          3.44820       -1.12220       -0.36900
C          1.46170       -1.99080        0.94110
C          2.97690       -2.02880       -2.28950
C          1.80300       -2.11460       -3.27390
C          0.47370       -2.28560       -2.51720
O          0.70200       -2.70030       -1.18390
C          4.29210       -1.72290       -3.01240
H          3.10410       -3.04460       -1.85100
H          1.72570       -1.22900       -3.94440
H         -0.13060       -3.05180       -3.04400
H         -0.12590       -1.34620       -2.53120
H          1.57090        0.49630       -2.22140
H          3.32600        0.81610       -1.93190
H          2.14180        0.96820       -0.58920
N          1.60590       -2.27170        2.04940
H          5.13980       -1.75290       -2.29540
H          4.26760       -0.73570       -3.51700
H          4.47060       -2.50900       -3.78130
