18
TSA8_9_CBr3_Cl_CN
C          2.32520        1.69850        0.35420
C          1.17690        1.47150       -0.68990
C          2.27720        0.62830        1.52420
H          3.28280        1.51600       -0.18040
Cl         1.83650        1.18630       -2.32510
C          2.31220        3.21430        0.70100
C          0.94710        3.66090        1.24360
C         -0.17900        2.88920        0.54310
O          0.22040        2.52640       -0.76100
C          3.42660        3.72540        1.50910
H          2.41600        3.73530       -0.27640
H          0.81100        3.57340        2.34190
H         -1.08220        3.53160        0.50220
H         -0.46580        1.98020        1.12110
Br         0.97350       -0.80300        1.23420
Br         3.98660       -0.29300        1.64010
Br         1.93670        1.29590        3.31740
N          4.28950        4.16930        2.14000
