20
TSA8_9_CH2F_OH_NO2
C          2.66630        0.50880       -1.41660
C          1.41380       -0.34610       -1.49590
C          2.69680        1.20500       -0.03540
H          3.53920       -0.17770       -1.47860
O          1.50180       -1.68790       -1.62380
C          2.73960        1.47570       -2.64900
C          1.68280        2.55920       -2.57720
C          0.70920        2.66420       -3.48700
O          0.30890        0.17140       -1.43770
N          4.04530        2.09820       -2.82960
H          2.56950        0.85050       -3.55570
H          1.71850        3.28230       -1.76810
H          0.63520        1.96760       -4.31590
H         -0.02620        3.45790       -3.40300
F          3.84030        1.95560        0.15120
H          2.66340        0.43420        0.76440
H          1.81420        1.86460        0.10010
H          2.35300       -2.14490       -1.67050
O          4.96750        1.83870       -2.11710
O          4.24590        2.87890       -3.87020
