17
TSA8_9_Me_Cl_F
C          1.67300       -1.08130        1.39960
C          0.84030        0.21380        1.36090
C          1.41400       -1.90290        0.12680
H          2.75630       -0.82980        1.40190
Cl         1.39850        1.46940        2.51450
C          1.32950       -1.85290        2.68920
C         -0.18280       -2.04760        2.80520
C         -0.86970       -0.68110        2.68860
O         -0.55560       -0.03800        1.46080
F          1.98000       -3.07360        2.72900
H          1.66390       -1.25510        3.56520
H         -0.55620       -2.72460        2.00910
H         -0.61450       -0.03450        3.55610
H         -1.96700       -0.84010        2.73260
H          0.34540       -2.17720        0.01460
H          2.02380       -2.83090        0.13850
H          1.70860       -1.30970       -0.76540
