23
TSA8_9_Cl_Et_CH2F
C          2.05900       -0.24210       -0.21650
C          1.48190       -1.01900       -1.16830
Cl         2.62800        1.41310       -0.39900
H          2.18710       -0.64230        0.78460
C          1.03900       -2.41340       -0.79510
C          3.69240       -1.20000       -3.97060
C          3.33770       -0.03560       -3.40450
C          1.88460        0.31480       -3.23090
O          1.25640       -0.64980       -2.46650
C          5.12840       -1.58770       -4.13620
H          2.92610       -1.89030       -4.31440
H          4.09650        0.65900       -3.05940
H          1.40590        0.33710       -4.23290
H          1.74850        1.32450       -2.80100
C          1.79820       -3.44510       -1.62530
H         -0.05060       -2.51410       -0.98200
H          1.22520       -2.63060        0.28020
H          1.60050       -3.29810       -2.70800
H          1.47310       -4.46790       -1.34330
H          2.89110       -3.35520       -1.44070
F          5.78030       -0.66360       -4.93130
H          5.18810       -2.58690       -4.61740
H          5.62120       -1.63900       -3.14270
