23
TSA8_9_CBr3_CCl3_CF3
C          2.45120       -2.32190       -0.34160
C          0.89970       -2.09270       -0.57900
C          3.29640       -0.99730       -0.50650
H          2.58270       -2.58980        0.72870
C          0.01640       -2.39630        0.66110
C          2.87570       -3.57880       -1.17490
C          2.47390       -3.44600       -2.65650
C          1.15460       -2.68040       -2.81150
O          0.36580       -2.85490       -1.66350
C          4.31670       -4.09590       -1.03320
H          2.23470       -4.39550       -0.77450
H          3.24020       -2.99660       -3.32180
H          0.61940       -3.05990       -3.70580
H          1.30550       -1.59740       -2.99980
Br         2.46500        0.50770        0.39700
Br         5.03030       -1.14260        0.36180
Br         3.62030       -0.37770       -2.31790
Cl         0.06350       -4.13300        1.07440
Cl         0.48330       -1.47410        2.11400
Cl        -1.67310       -1.96300        0.29200
F          4.63450       -4.26330        0.30280
F          4.42520       -5.32440       -1.66210
F          5.22030       -3.23460       -1.62620
