20
TSA8_9_NO2_NO2_NH2
C          2.76120       -0.09100       -1.48240
C          1.45610       -0.84300       -1.25310
N          2.89640        0.98030       -0.50590
H          3.61110       -0.79520       -1.34350
N          1.44150       -2.16590       -0.92040
C          2.88360        0.42050       -2.94600
C          1.82340        1.43450       -3.33490
C          0.93480        1.19590       -4.30400
O          0.39660       -0.24030       -1.36790
N          4.21410        0.99170       -3.16350
H          2.79450       -0.47650       -3.60130
H          1.78410        2.39130       -2.82570
H          0.93290        0.25740       -4.84900
H          0.19610        1.94970       -4.55710
O          3.81040        0.97240        0.26240
O          1.99230        1.93290       -0.41670
O          0.40250       -2.72850       -0.74520
O          2.56260       -2.84240       -0.78550
H          4.33470        1.86200       -2.59610
H          4.32790        1.23600       -4.17440
