23
TSA8_9_CH2F_OMe_NO2
C          3.16270       -0.19830        1.38200
C          2.15000        0.90050        1.62140
C          2.66030       -1.09300        0.22390
H          4.10350        0.29970        1.05730
O          2.52160        2.19260        1.43300
C          3.46380       -0.95280        2.72290
C          2.28480       -1.79270        3.17110
C          1.62780       -1.54630        4.30860
O          1.01250        0.62580        1.98170
N          4.65310       -1.79390        2.66900
H          3.67500       -0.17070        3.48790
H          1.96440       -2.62800        2.55600
H          1.91350       -0.72410        4.95740
H          0.79090       -2.17390        4.59670
F          3.56490       -2.08230       -0.10580
H          2.49870       -0.46690       -0.68010
H          1.69070       -1.56950        0.47760
C          1.69470        3.27120        1.66380
H          2.24110        4.20620        1.42350
H          1.39350        3.29780        2.73300
H          0.79140        3.20780        1.02010
O          5.33990       -1.84590        1.69400
O          5.04360       -2.42270        3.75670
