23
TSA8_9_CF3_Me_CCl3
C          1.71070        0.05310       -0.09520
C          1.42420        0.05870       -1.42300
C          1.91710        1.23670        0.81940
H          1.78180       -0.90920        0.40470
C          1.17010       -1.24390       -2.12980
C          2.72310        3.12230       -4.60860
C          2.80170        2.05570       -3.79760
C          2.36050        2.09890       -2.36480
O          1.34520        1.17630       -2.19310
C          3.16700        3.05230       -6.04740
H          2.32870        4.05870       -4.22380
H          3.19420        1.11620       -4.17810
H          1.98810        3.11030       -2.09300
H          3.24210        1.85470       -1.73190
F          3.21240        1.21670        1.30060
F          1.67380        2.45230        0.21870
F          1.04650        1.11770        1.88620
H          1.91160       -1.36480       -2.94750
H          0.15120       -1.22970       -2.56920
H          1.24840       -2.12140       -1.45320
Cl         2.92630        4.63180       -6.83600
Cl         4.89760        2.63190       -6.14570
Cl         2.21480        1.83110       -6.93260
