23
TSA8_9_CF3_Me_CCl3
C          2.30400        0.61160       -2.38370
C          0.87470        0.88410       -1.79500
C          3.31130        0.47590       -1.22060
H          2.29810       -0.38000       -2.88980
C         -0.08640       -0.27590       -2.04350
C          2.60980        1.69610       -3.46850
C          2.36630        3.11950       -2.91780
C          1.16440        3.15120       -1.96350
O          0.28620        2.09060       -2.26430
C          3.93790        1.59840       -4.27320
H          1.80450        1.52930       -4.22110
H          3.23630        3.58170       -2.40580
H          0.64340        4.12570       -2.05920
H          1.49200        3.09290       -0.89890
F          4.52750        0.00940       -1.67650
F          3.49970        1.67810       -0.56470
F          2.83690       -0.45100       -0.30790
H         -0.25000       -0.40710       -3.13470
H         -1.06090       -0.06530       -1.55540
H          0.32740       -1.21440       -1.61890
Cl         3.86160        2.70720       -5.67150
Cl         5.38720        2.06330       -3.33640
Cl         4.17200       -0.04620       -4.92620
