25
TSA8_9_Et_NH2_CF3
C          2.57170        1.35500        1.17200
C          1.53730        2.02860        0.26370
C          2.54080       -0.17310        0.84010
H          3.55040        1.78320        0.86440
N          1.68050        1.99350       -1.08380
C          2.34350        1.77570        2.67530
C          1.21150        1.00240        3.31900
C          0.08650        1.59400        3.73140
O          0.57980        2.62220        0.73870
C          3.60590        1.76370        3.57420
H          2.09300        2.86170        2.65600
H          1.31400       -0.06910        3.45840
H         -0.06290        2.66290        3.61670
H         -0.69870        1.00180        4.19020
C          3.55310       -1.06760        1.54100
H          2.74310       -0.29410       -0.24440
H          1.52440       -0.58290        1.03050
H          4.58400       -0.68090        1.39930
H          3.49400       -2.08760        1.10480
H          3.30190       -1.18740        2.60840
H          0.98860        2.45420       -1.69300
H          2.48620        1.52820       -1.52470
F          4.10940        0.50700        3.81240
F          4.59940        2.53380        2.99510
F          3.29130        2.32660        4.79940
