25
TSA8_9_Et_NH2_CF3
C          2.42910        1.17130        1.32330
C          1.18770        1.73350        0.53480
C          2.32840       -0.37930        1.35230
H          3.34030        1.41030        0.72980
N          1.61900        2.65250       -0.51370
C          2.48080        1.91950        2.69070
C          1.15840        1.72980        3.46320
C         -0.03670        1.63890        2.50480
O          0.21940        2.39670        1.34740
C          3.69300        1.70110        3.61190
H          2.53070        2.99440        2.39950
H          1.13910        0.82850        4.11360
H         -0.94660        2.01090        3.01810
H         -0.26260        0.58460        2.22510
C          3.65730       -1.11050        1.56420
H          1.99940       -0.71030        0.34160
H          1.56900       -0.72920        2.08000
H          4.38420       -0.81400        0.77860
H          3.48450       -2.20470        1.47980
H          4.11310       -0.92990        2.54500
H          0.77240        2.98180       -1.03030
H          2.20340        2.12200       -1.19910
F          3.65510        0.46470        4.22380
F          4.86810        1.83760        2.89500
F          3.67660        2.65850        4.61170
