20
TSA8_9_OH_CH2F_NH2
C          2.95980        0.66040        1.46110
C          1.39470        0.60420        1.52150
O          3.46290       -0.48550        0.82300
H          3.30520        1.55550        0.89310
C          0.79910        2.01300        1.47430
C          3.48520        0.71800        2.90220
C          3.02800       -0.53250        3.68460
C          1.71200       -1.09460        3.11750
O          0.87000       -0.05080        2.68200
N          4.93890        0.87690        2.94540
H          3.02420        1.60940        3.38150
H          3.76920       -1.36110        3.65780
H          1.20440       -1.69590        3.89950
H          1.90100       -1.79500        2.27230
H          3.16700       -0.43550       -0.12350
F         -0.58150        1.93500        1.45370
H          1.13460        2.53670        0.55470
H          1.11280        2.60300        2.36140
H          5.40760        0.03580        2.53720
H          5.24420        0.97700        3.94060
