20
TSA8_9_OMe_CN_OH
C          1.57420       -1.40740       -0.31000
C          2.34060       -1.37800        0.98810
O          2.26410       -0.57990       -1.23560
H          0.56530       -1.00880       -0.04390
C          1.71450       -0.84560        2.17630
C          1.46320       -2.86330       -0.85260
C          0.11980       -3.10220       -1.50680
C         -0.99620       -3.11420       -0.76540
O          3.50280       -1.74970        1.03280
O          2.51590       -3.11120       -1.75340
H          1.52840       -3.59530       -0.01430
H          0.05030       -3.30670       -2.57070
H         -0.95030       -2.94680        0.30890
H         -1.96080       -3.31170       -1.21830
C          1.40110        0.12540       -2.10090
H          1.76760       -0.00840       -3.14000
H          1.44250        1.20540       -1.84710
H          0.34340       -0.21630       -2.08790
N          1.20060       -0.42140        3.12480
H          2.39570       -4.03140       -2.10770
