22
TSA8_9_NO2_Br_Et
C          0.31370       -0.90200        1.11280
C          1.60000       -1.64160        1.41630
N          0.60920        0.44050        0.63580
H         -0.18830       -1.44060        0.28280
Br         2.04660       -3.22610        0.44390
C         -0.68800       -0.86750        2.31230
C         -0.12670       -0.12190        3.50840
C         -0.68880        0.99780        3.97460
O          2.37750       -1.23240        2.26380
C         -1.12400       -2.27570        2.78710
H         -1.60240       -0.34000        1.95600
H          0.75210       -0.50600        4.01590
H         -0.26060        1.49960        4.83640
H         -1.57170        1.42230        3.50750
O          1.17940        1.22720        1.33060
O          0.26480        0.79050       -0.58460
C         -1.86230       -3.08660        1.71990
H         -1.82400       -2.15370        3.64370
H         -0.24450       -2.85480        3.14390
H         -2.75640       -2.53120        1.36510
H         -2.19630       -4.05070        2.15790
H         -1.20610       -3.32120        0.85860
