18
TSA8_9_NO2_Cl_NO2
C          1.64770       -2.03420        1.02320
C          1.42280       -0.59060        1.41340
N          1.51480       -2.16040       -0.42590
H          2.69440       -2.30080        1.29270
Cl         2.71390        0.33410        2.16370
C          0.73420       -2.97480        1.87590
C         -0.75100       -2.76590        1.64360
C         -1.56280       -2.33820        2.61660
O          0.35000       -0.04810        1.19870
N          1.07950       -4.37640        1.69110
H          0.96100       -2.72210        2.93850
H         -1.18470       -2.96960        0.67140
H         -1.18620       -2.12040        3.61120
H         -2.62090       -2.20100        2.41880
O          2.24490       -1.53410       -1.13380
O          0.60350       -2.92850       -0.98160
O          0.91570       -4.92210        0.64250
O          1.55000       -5.06890        2.70670
