26
TSA8_9_CBr3_CCl3_Et
C          2.00000       -2.55400        0.79180
C          1.19180       -1.69170        1.77560
C          2.25880       -1.79120       -0.56330
H          3.00720       -2.71020        1.22720
C          1.73150       -1.22740        3.13080
C          1.36850       -3.98930        0.56630
C         -0.04900       -3.94210        0.02900
C         -0.37610       -4.46720       -1.15740
O          0.06590       -1.34160        1.45280
C          1.35200       -4.88290        1.82740
H          1.99990       -4.53550       -0.16570
H         -0.83500       -3.49060        0.62490
H         -1.40310       -4.42350       -1.50410
H          0.36940       -4.93960       -1.78960
Br         3.21930       -0.12870       -0.29340
Br         3.39560       -2.82900       -1.75360
Br         0.66130       -1.30170       -1.56520
Cl         2.06440       -2.58950        4.22070
Cl         3.23580       -0.29190        2.97020
Cl         0.55090       -0.17900        3.97100
C          2.75100       -5.28060        2.30990
H          0.83430       -5.83660        1.57770
H          0.77270       -4.39900        2.63970
H          3.29210       -5.82190        1.50500
H          2.65780       -5.95710        3.18560
H          3.35650       -4.40750        2.61520
