26
TSA8_9_CBr3_CCl3_Et
C          1.98720       -2.90590        1.06680
C          0.86250       -1.92880        1.55570
C          2.96510       -2.33330       -0.02870
H          2.60690       -3.14280        1.95330
C          1.11510       -0.70780        2.45850
C          1.27080       -4.24890        0.62310
C         -0.27060       -4.12470        0.70710
C         -0.73270       -2.81270        0.05560
O         -0.08240       -1.63930        0.54070
C          1.64710       -5.47570        1.50040
H          1.50780       -4.46980       -0.44000
H         -0.59380       -4.10010        1.77310
H         -1.82680       -2.70940        0.20830
H         -0.54500       -2.88900       -1.03510
Br         4.11680       -0.93540        0.65910
Br         4.23230       -3.65400       -0.67680
Br         2.06550       -1.65200       -1.61120
Cl         2.34480       -1.04090        3.70620
Cl         1.53920        0.75870        1.53690
Cl        -0.40740       -0.35040        3.31010
C          3.11230       -5.89710        1.44560
H          1.04780       -6.35130        1.16460
H          1.38280       -5.26500        2.56080
H          3.39000       -6.17890        0.40930
H          3.26050       -6.78520        2.09580
H          3.77990       -5.09390        1.81680
