17
TSA8_9_CHF2_Br_Cl
C          1.68270       -1.30820        0.98020
C          0.90240       -0.02960        1.19110
C          1.62950       -1.71310       -0.51160
H          2.74720       -1.08690        1.21530
Br         1.79910        1.55520        1.77560
C          1.22540       -2.40230        1.98880
C         -0.20530       -2.85010        1.80290
C         -1.12980       -2.67210        2.75220
O         -0.30130        0.01220        0.98900
Cl         2.28290       -3.84050        1.92410
H          1.35460       -1.97660        3.00940
H         -0.49850       -3.33960        0.88060
H         -0.88500       -2.19140        3.69440
H         -2.14780       -3.01000        2.58740
F          2.41760       -2.82130       -0.75970
F          0.33730       -1.96900       -0.93320
H          2.02730       -0.87610       -1.12500
