17
TSA8_9_CHF2_Br_Cl
C          1.69800       -1.71040        0.96240
C          0.96510       -0.43220        1.41590
C          1.49510       -1.88570       -0.56000
H          2.78990       -1.58970        1.13400
Br         1.53830        0.25890        3.15010
C          1.17240       -2.88610        1.82220
C         -0.35230       -2.95900        1.73970
C         -0.93680       -1.59480        2.13150
O         -0.44710       -0.55050        1.30280
Cl         1.90320       -4.46080        1.40360
H          1.44160       -2.69340        2.88360
H         -0.67930       -3.23160        0.71460
H         -0.74330       -1.37670        3.20400
H         -2.03950       -1.64690        2.01970
F          1.98700       -0.77390       -1.22150
F          2.17370       -2.99530       -1.02780
H          0.42180       -1.98880       -0.81980
