21
TSA8_9_OH_Me_Me
C          3.03670        0.60150       -1.41150
C          1.53700        0.40430       -1.45900
O          3.51170        0.31900       -0.11950
H          3.51100       -0.09720       -2.14130
C          0.94000       -0.60340       -2.39480
C          3.44640        2.03500       -1.83240
C          2.91820        3.07470       -0.86700
C          2.07980        4.04080       -1.25390
O          0.80520        1.05430       -0.72760
C          4.97290        2.16140       -1.91290
H          3.04530        2.21990       -2.85510
H          3.23060        3.03750        0.17300
H          1.74300        4.11500       -2.28330
H          1.72340        4.76900       -0.53270
H          3.50500       -0.66940       -0.02130
H          1.20400       -0.34180       -3.44060
H         -0.16680       -0.62270       -2.29840
H          1.33770       -1.61230       -2.15800
H          5.44080        1.97930       -0.92150
H          5.25280        3.18050       -2.25640
H          5.38080        1.42790       -2.64080
