21
TSA8_9_OH_Me_Me
C          1.83320        0.02320       -0.21810
C          1.40340        0.44180       -1.43120
O          2.14920        0.87540        0.77480
H          1.92030       -1.04260       -0.01890
C          1.04820       -0.57590       -2.47730
C          3.85430        2.82060       -2.58070
C          3.29930        2.86630       -1.36030
C          1.80380        2.87920       -1.20300
O          1.25430        1.75300       -1.78940
C          5.33890        2.79680       -2.76380
H          3.22080        2.79630       -3.46360
H          3.92700        2.89150       -0.47400
H          1.40600        3.77660       -1.72210
H          1.50310        2.96460       -0.13900
H          2.43060        0.54420        1.63950
H          1.69530       -0.41960       -3.36590
H         -0.01320       -0.44560       -2.77550
H          1.19010       -1.61970       -2.12260
H          5.76640        1.89890       -2.26940
H          5.79080        3.71200       -2.32740
H          5.57980        2.75780       -3.84740
