21
TSA8_9_CH2F_CN_CCl3
C          2.58240       -1.55730       -0.95770
C          1.57500       -1.81780        0.14700
C          2.48330       -0.05830       -1.31430
H          3.58210       -1.72870       -0.50580
C          2.02460       -1.90240        1.51640
C          2.35640       -2.56950       -2.14490
C          1.27300       -2.05050       -3.07660
C          0.02470       -2.51830       -3.08450
O          0.37580       -1.80590       -0.08210
C          3.62470       -2.98040       -2.95790
H          2.02690       -3.52290       -1.66920
H          1.51660       -1.23220       -3.74980
H         -0.28600       -3.30590       -2.40870
H         -0.70310       -2.07800       -3.75980
F          3.46800        0.33580       -2.19160
H          2.59950        0.54490       -0.38800
H          1.48520        0.18840       -1.73700
N          2.38470       -1.93930        2.61510
Cl         3.20710       -4.29020       -4.10110
Cl         4.34730       -1.66270       -3.91900
Cl         4.89090       -3.63710       -1.88190
