21
TSA8_9_CH2F_CN_CCl3
C          1.73530       -0.08730        0.06900
C          1.42540       -1.38910        0.33490
C          1.81070        0.67600       -1.22760
H          1.98280        0.53790        0.92430
C          1.47780       -1.79150        1.71920
C          2.34520       -3.73110       -3.38500
C          2.16040       -2.64160       -2.61460
C          0.85870       -2.40050       -1.89590
O          1.05330       -2.37440       -0.53340
C          3.64050       -3.99120       -4.11010
H          1.53790       -4.45180       -3.49610
H          2.96190       -1.91870       -2.50220
H          0.15740       -3.23530       -2.10910
H          0.31760       -1.50460       -2.23950
F          3.10810        1.12540       -1.37900
H          1.14040        1.56100       -1.16050
H          1.54780        0.13490       -2.14140
N          1.55390       -2.10500        2.83040
Cl         3.52240       -5.50620       -5.04310
Cl         3.99440       -2.66070       -5.24240
Cl         4.98340       -4.15160       -2.94850
