24
TSA8_9_OMe_Me_CHF2
C          1.48850        0.08900       -0.09350
C          1.35330        1.34310       -0.58600
O          1.49450       -0.17060        1.23400
H          1.57730       -0.74170       -0.79020
C          1.31530        1.54790       -2.07440
C          3.72340        3.55570        2.21190
C          2.99120        2.52620        1.75940
C          1.50800        2.65310        1.52150
O          1.22660        2.46720        0.18030
C          5.20200        3.42800        2.42310
H          3.25160        4.51020        2.42710
H          3.47680        1.57860        1.54450
H          1.16610        3.67380        1.79830
H          0.93330        1.94830        2.15510
C          1.55860       -1.44400        1.76350
H          2.46090       -1.52850        2.40550
H          1.60610       -2.22720        0.97440
H          0.65800       -1.62370        2.38530
H          2.14690        2.22160       -2.36980
H          0.35110        2.02090       -2.35560
H          1.41830        0.59700       -2.64030
F          5.46610        2.44070        3.35460
F          5.82310        3.11300        1.22790
H          5.60820        4.39240        2.79450
