24
TSA8_9_OMe_Me_CHF2
C          2.75280        1.12030        0.66390
C          1.37080        1.40290       -0.03130
O          2.59100        0.27850        1.79350
H          3.47120        0.64880       -0.04820
C          1.54300        1.55190       -1.54180
C          3.32320        2.47470        1.12700
C          2.34960        3.13430        2.12750
C          0.89390        2.73020        1.83640
O          0.69460        2.56730        0.45200
C          4.74580        2.38840        1.70230
H          3.37270        3.13070        0.22970
H          2.55180        2.86580        3.18720
H          0.21030        3.50810        2.23550
H          0.62340        1.78690        2.36520
C          2.18660       -1.02490        1.41780
H          2.83480       -1.76100        1.93590
H          2.26360       -1.24210        0.32670
H          1.13420       -1.18360        1.73240
H          2.19370        2.41980       -1.78180
H          0.55110        1.70360       -2.01600
H          1.99260        0.62910       -1.96560
F          4.78240        1.58030        2.82560
F          5.61360        1.88080        0.75170
H          5.09400        3.40510        1.98440
