18
TSA8_9_Cl_OH_CH2F
C          1.85020       -0.00110        0.00410
C          1.61710        0.31860        1.28530
Cl         1.82020       -1.66200       -0.57930
H          2.03910        0.78570       -0.71910
O          1.61420        1.61780        1.64690
C          2.91650        0.05940        4.63520
C          3.31720       -0.65250        3.57200
C          2.33710       -1.45390        2.76090
O          1.36310       -0.63380        2.22070
C          3.88730        0.86230        5.44550
H          1.86790        0.06320        4.92140
H          4.36560       -0.65880        3.28520
H          1.85200       -2.20190        3.42280
H          2.87360       -2.00140        1.95830
H          1.44900        1.87970        2.56350
F          4.85300        0.03250        5.98550
H          3.34930        1.37460        6.27030
H          4.37270        1.62760        4.80410
