18
TSA8_9_Cl_OH_CH2F
C          2.78290        0.60390        2.00700
C          1.37110        0.13790        1.53620
Cl         4.04680       -0.25730        1.07120
H          2.91290        1.68320        1.77300
O          0.49000        1.22810        1.47570
C          2.89030        0.35010        3.52200
C          2.67520       -1.14640        3.82850
C          1.74910       -1.80600        2.78980
O          0.77690       -0.89340        2.33110
C          4.17620        0.88980        4.16440
H          2.04470        0.90260        3.98830
H          3.61660       -1.73750        3.84870
H          1.25960       -2.68980        3.24820
H          2.32620       -2.19960        1.92350
H          0.32660        1.52080        2.40990
F          5.29890        0.24650        3.67470
H          4.13480        0.73950        5.26430
H          4.26830        1.97870        3.96590
