14
TSA8_9_Br_Br_F
C          1.58130       -0.06460        0.01870
C          1.83990       -0.24870       -1.28010
Br         1.21200        1.67070        0.73630
H          1.62440       -0.90830        0.70630
Br         2.26500       -2.03090       -1.86660
C          1.70390       -0.38710       -4.93620
C          2.74880        0.00940       -4.20550
C          2.64990        1.09380       -3.16680
O          1.78570        0.81630       -2.12420
F          1.86640       -1.36600       -5.86420
H          0.72520        0.06310       -4.80240
H          3.71410       -0.45740       -4.36870
H          2.31890        2.03290       -3.65900
H          3.66040        1.27150       -2.74090
