19
TSA8_9_CHF2_NH2_H
C          1.71620       -1.54330        0.84030
C          0.94420       -0.40310        1.48200
C          1.59940       -1.46990       -0.69500
H          2.79280       -1.40050        1.08310
N          1.58030        0.50380        2.26110
C          1.35760       -2.94990        1.39730
C         -0.05010       -3.44270        1.15800
C         -1.11120       -2.97090        1.81880
O         -0.25260       -0.27460        1.27500
H          2.04090       -3.67190        0.89950
H          1.57810       -3.00250        2.48570
H         -0.20150       -4.25110        0.44850
H         -1.01120       -2.19930        2.57350
H         -2.09700       -3.37880        1.62150
F          2.40080       -2.43130       -1.28570
F          0.29200       -1.65490       -1.11010
H          1.94310       -0.47300       -1.04550
H          1.05770        1.28450        2.68560
H          2.59110        0.43100        2.44640
