19
TSA8_9_CHF2_NH2_H
C          1.90430       -0.06890        0.03510
C          1.30360       -0.64390        1.10030
C          2.04830       -0.69500       -1.32940
H          2.30920        0.93150        0.14710
N          1.22200        0.08840        2.32210
C         -0.18270       -4.90860        2.31240
C         -0.38050       -3.88730        1.47210
C         -0.11250       -2.46740        1.88040
O          0.78240       -1.89780        0.99790
H         -0.38760       -5.92500        1.99240
H          0.17630       -4.74400        3.32400
H         -0.75040       -4.08840        0.47120
H          0.28850       -2.44260        2.91650
H         -1.06560       -1.89840        1.84290
F          3.38940       -0.76390       -1.65770
F          1.50320       -1.96460       -1.41320
H          1.53210       -0.04560       -2.06810
H          0.78470       -0.30620        3.16360
H          1.62080        1.03600        2.39480
