19
TSA8_9_CHF2_NH2_H
C          1.67370       -1.83500        0.69840
C          0.93740       -0.62410        1.31290
C          1.50450       -1.83220       -0.83210
H          2.76520       -1.75640        0.89930
N          1.31940       -0.37860        2.70300
C          1.13800       -3.12280        1.35330
C         -0.38740       -3.17420        1.26120
C         -0.96620       -1.88130        1.84880
O         -0.47480       -0.73390        1.17000
H          1.59050       -4.02820        0.89610
H          1.41470       -3.11960        2.43050
H         -0.71370       -3.28760        0.20640
H         -0.76480       -1.81690        2.94070
H         -2.06950       -1.91230        1.73610
F          2.04840       -0.67360       -1.35830
F          2.16230       -2.91720       -1.38420
H          0.43640       -1.87540       -1.12720
H          0.80360        0.46620        3.03790
H          2.33870       -0.14750        2.72760
