21
TSA8_9_CHF2_OMe_Br
C          1.82440       -0.06350       -0.05590
C          1.79670        0.62290        1.10960
C          1.69230       -1.55210       -0.26750
H          1.93340        0.51720       -0.96830
O          1.86250        1.97660        1.03450
C          4.12560       -0.97480        4.80530
C          3.21860       -0.28990        4.10390
C          2.60790       -0.86430        2.86030
O          1.70120        0.04010        2.33760
Br         4.89310       -0.22290        6.38660
H          4.44070       -1.96470        4.48880
H          2.92100        0.69890        4.44140
H          2.08080       -1.80430        3.12790
H          3.41940       -1.08520        2.13030
F          2.85770       -2.04320       -0.82450
F          1.39420       -2.25850        0.87680
H          0.85830       -1.72420       -0.97890
C          1.90350        2.79970        2.13860
H          1.94190        3.85630        1.80380
H          2.81240        2.58460        2.73980
H          0.99580        2.65290        2.76250
