18
TSA8_9_CHF2_CN_Cl
C          1.19540       -1.77060       -0.19330
C          2.21800       -1.86470        0.91370
C          1.69450       -0.86500       -1.34320
H          0.30830       -1.26860        0.24970
C          1.84720       -1.45840        2.24850
C          0.74240       -3.19490       -0.63960
C         -0.64320       -3.16880       -1.23950
C         -1.70160       -2.83080       -0.48900
O          3.30830       -2.38290        0.72120
Cl         1.89910       -3.98250       -1.75870
H          0.66300       -3.85590        0.25180
H         -0.80330       -3.45010       -2.27650
H         -1.58050       -2.57070        0.56150
H         -2.70150       -2.82350       -0.90590
F          2.92240       -1.28650       -1.82840
F          0.78430       -0.84010       -2.38450
H          1.82370        0.17140       -0.96540
N          1.54470       -1.14660        3.32100
