18
TSA8_9_CHF2_CN_Cl
C          1.71510       -0.05750        0.07890
C          1.46530       -1.24800        0.64790
C          1.80630        0.16190       -1.41510
H          1.80670        0.82190        0.71110
C          1.30680       -1.34500        2.08370
C         -0.27050       -5.33360       -0.84830
C          0.08530       -4.08300       -1.13880
C          0.12750       -3.03350       -0.08340
O          1.31410       -2.34800       -0.12090
Cl        -0.40810       -6.52470       -2.12640
H         -0.51680       -5.61560        0.17140
H          0.29710       -3.79770       -2.16600
H         -0.06850       -3.43260        0.93550
H         -0.67550       -2.32450       -0.35000
F          3.12610        0.35920       -1.76300
F          1.29140       -0.89150       -2.15280
H          1.21480        1.06250       -1.68590
N          1.16930       -1.46910        3.22650
