18
TSA8_9_CHF2_CN_Cl
C          1.14950       -1.83350       -0.69630
C          1.36630       -1.99010        0.85040
C          2.17450       -0.92610       -1.39630
H          0.17790       -1.33980       -0.91670
C          1.39640       -0.76070        1.64510
C          1.06120       -3.29980       -1.17030
C         -0.27690       -3.84810       -0.63750
C         -0.62140       -3.23320        0.74140
O          0.55950       -2.99310        1.48390
Cl         1.17440       -3.59560       -2.92730
H          1.89930       -3.88030       -0.71250
H         -1.11030       -3.55500       -1.31900
H         -1.31610       -3.90290        1.28720
H         -1.17520       -2.26970        0.63010
F          3.47480       -1.34380       -1.19880
F          1.90570       -0.86350       -2.75370
H          2.05470        0.10680       -1.00240
N          1.43050        0.18830        2.30530
