20
TSA8_9_OH_NO2_CBr3
C          2.90110        0.54080        0.85010
C          1.52480        1.10010        0.53410
O          2.94160       -0.79410        0.40800
H          3.65840        1.14930        0.31170
N          1.36470        2.16940       -0.29950
C          3.24530        0.59490        2.37040
C          2.84530        1.93570        2.96470
C          1.94760        2.02180        3.95480
O          0.54320        0.57360        1.04330
C          4.75780        0.33140        2.65610
H          2.65240       -0.20070        2.87690
H          3.29000        2.84870        2.58250
H          1.67490        2.98880        4.36370
H          1.47900        1.13280        4.36890
H          3.47400       -0.82320       -0.42840
O          0.27240        2.59220       -0.53000
O          2.40400        2.75490       -0.86100
Br         5.10200        0.35200        4.56930
Br         5.35910       -1.40620        2.02780
Br         5.91360        1.68100        1.84990
