20
TSA8_9_OH_NO2_CBr3
C          1.76970        0.19680       -0.02260
C          1.37080        1.45530        0.29250
O          2.17390       -0.69360        0.90470
H          1.76150       -0.12820       -1.05850
N          0.93920        2.33370       -0.74720
C          4.08100        0.88420        3.71330
C          3.36460        1.34610        2.67820
C          1.86220        1.39730        2.73460
O          1.34750        1.94370        1.57230
C          5.58600        0.83700        3.67720
H          3.56220        0.53760        4.60330
H          3.87310        1.69580        1.78330
H          1.57130        2.05310        3.58200
H          1.42240        0.39550        2.92390
H          2.44080       -1.58690        0.64830
O          0.58880        3.44230       -0.47740
O          0.92930        1.94850       -2.00650
Br         6.26620        0.11240        5.34100
Br         6.19960       -0.29440        2.22490
Br         6.31630        2.62030        3.44990
