17
TSA8_9_NH2_CN_Cl
C          1.67110       -0.04940        0.10470
C          1.55980       -1.36790        0.31530
N          1.75160        0.49020       -1.20770
H          1.54350        0.64420        0.92890
C          1.33640       -1.87550        1.64610
C         -0.21600       -3.60090       -3.35010
C          0.07440       -2.57420       -2.54710
C          0.28560       -2.76870       -1.07860
O          1.52360       -2.24560       -0.71510
Cl        -0.45120       -3.34220       -5.06950
H         -0.31870       -4.60650       -2.95230
H          0.15390       -1.57110       -2.95720
H          0.21560       -3.83800       -0.78710
H         -0.54320       -2.24950       -0.54980
H          2.71370        0.62210       -1.54840
H          1.19240        1.32790       -1.41560
N          1.15680       -2.30730        2.70260
