26
TSA8_9_CHF2_CF3_Et
C          1.97410       -0.17670        0.04250
C          1.53250       -1.38020        0.53030
C          2.00840        0.45900       -1.33140
H          2.39270        0.51620        0.76460
C          1.63640       -1.65090        2.01940
C          3.18940       -3.82770       -1.48680
C          2.33300       -2.95230       -2.04620
C          0.94330       -2.78520       -1.49050
O          0.99320       -2.43400       -0.15800
C          4.60970       -4.07900       -1.94400
H          2.85180       -4.40960       -0.63290
H          2.62030       -2.35420       -2.90230
H          0.42680       -3.76540       -1.56370
H          0.30710       -2.08990       -2.06280
F          3.32120        0.72370       -1.67030
F          1.42630       -0.23880       -2.35210
H          1.46560        1.42570       -1.26370
F          0.37410       -1.90960        2.51960
F          2.42910       -2.76710        2.21440
F          2.18230       -0.59990        2.73770
C          5.07670       -3.23620       -3.13050
H          4.70150       -5.15240       -2.21460
H          5.28580       -3.87590       -1.08620
H          4.44830       -3.43930       -4.02300
H          6.12840       -3.49660       -3.37550
H          5.03390       -2.15520       -2.87720
