23
TSA8_9_OMe_NH2_CBr3
C          1.55800       -0.04200       -0.11720
C          1.22020        0.98430        0.67090
O          1.65420       -1.28670        0.40630
H          1.72270        0.11590       -1.18070
N          1.07820        2.29200        0.12350
C         -0.77790        0.28470        4.82980
C         -0.71030        0.34910        3.49060
C          0.08800        1.40150        2.78110
O          1.01350        0.75200        1.99160
C         -1.54160       -0.80720        5.53060
H         -0.26050        1.03000        5.42690
H         -1.23130       -0.38830        2.88680
H          0.61540        2.06210        3.50270
H         -0.60670        2.01760        2.16970
C          1.84880       -2.40320       -0.37240
H          1.88630       -3.29980        0.28060
H          2.80420       -2.32130       -0.93290
H          1.00330       -2.51870       -1.08430
H          0.85750        3.09390        0.72730
H          1.23510        2.46240       -0.88070
Br        -1.46040       -0.54550        7.44900
Br        -3.40790       -0.80840        4.99430
Br        -0.75980       -2.53500        5.12160
