20
TSA8_9_CF3_H_CHF2
C          1.48110        0.24980        2.40350
C          1.43700        1.19690        1.22410
C          1.40970       -1.21180        1.89430
H          2.48500        0.37510        2.86710
H          2.29620        1.82430        1.00950
C          0.42660        0.68610        3.47920
C         -1.00180        0.64070        2.97140
C         -1.74460        1.74600        2.85180
O          0.45690        1.26150        0.49810
C          0.52100       -0.09050        4.80640
H          0.69020        1.73980        3.73130
H         -1.44570       -0.31180        2.70200
H         -1.34770        2.72260        3.11130
H         -2.76450        1.67700        2.48810
F          2.39180       -1.41030        0.93850
F          1.65020       -2.10830        2.91630
F          0.18350       -1.49100        1.32000
F         -0.27000        0.52780        5.75940
F          0.08430       -1.39580        4.67330
H          1.56840       -0.08510        5.17570
