20
TSA8_9_CF3_H_CHF2
C          1.32360        0.12170        2.59000
C          1.24140        1.13870        1.43530
C          1.07610       -1.30680        2.04240
H          2.36620        0.12580        2.97740
H          1.65560        2.13460        1.71570
C          0.37380        0.63100        3.71900
C         -1.02890        0.91640        3.16150
C         -0.90900        1.83570        1.93910
O         -0.08320        1.25610        0.94310
C          0.29700       -0.24740        4.97880
H          0.78910        1.60990        4.05240
H         -1.54510       -0.02270        2.87570
H         -0.52980        2.84100        2.23300
H         -1.92270        1.99270        1.51570
F          1.97560       -1.56040        1.02120
F          1.29310       -2.25320        3.02490
F         -0.20190       -1.45900        1.53850
F         -0.34130       -1.44940        4.73210
F          1.56490       -0.48550        5.47810
H         -0.29080        0.28690        5.75570
