20
TSA8_9_OH_NO2_CF3
C          1.93820        0.32640       -0.02010
C          1.35470        1.50000        0.31910
O          2.38200       -0.54660        0.90570
H          2.03510        0.04920       -1.06490
N          0.84610        2.35970       -0.70000
C          2.98720        4.13810        2.20540
C          3.25230        2.82880        2.33470
C          2.14780        1.84920        2.62530
O          1.19740        1.89320        1.61790
C          4.06760        5.13730        1.91740
H          1.96450        4.49220        2.31230
H          4.27100        2.46400        2.23480
H          1.66600        2.14260        3.58130
H          2.55660        0.83200        2.76960
H          2.76750       -1.39340        0.64100
O          0.33690        3.39660       -0.39980
O          0.95620        2.04500       -1.97390
F          4.67490        4.83900        0.71140
F          3.51850        6.40460        1.84390
F          5.01220        5.11370        2.92700
