22
TSA8_9_NH2_CBr3_CBr3
C          3.02320       -0.31190       -1.43620
C          1.61730       -0.86280       -1.24500
N          3.32410        0.68250       -0.40140
H          3.72560       -1.15990       -1.30180
C          1.39660       -2.33040       -0.94310
C          3.22670        0.25140       -2.88120
C          2.36520        1.47960       -3.12330
C          1.38680        1.49550       -4.03410
O          0.65850       -0.10900       -1.33140
C          4.71300        0.55740       -3.23620
H          2.91410       -0.55870       -3.57890
H          2.54610        2.38170       -2.54700
H          1.16620        0.62140       -4.63790
H          0.79620        2.39480       -4.17840
H          2.62180        1.45690       -0.41380
H          3.28330        0.22760        0.53970
Br         2.26770       -2.80560        0.72340
Br        -0.49010       -2.76680       -0.77010
Br         2.12700       -3.42480       -2.36840
Br         4.85450        1.11320       -5.09510
Br         5.51320        1.96320       -2.15400
Br         5.82260       -1.03200       -3.07350
