22
TSA8_9_NH2_CBr3_CBr3
C          3.05230       -0.24620       -1.59090
C          1.54700       -0.69450       -1.57770
N          3.24840        0.87580       -0.66970
H          3.69750       -1.07780       -1.23930
C          1.33720       -2.16340       -1.16410
C          3.46090        0.11440       -3.04480
C          2.49360        1.17070       -3.62210
C          1.05240        0.91980       -3.14880
O          0.88360       -0.44010       -2.81430
C          4.95360        0.47480       -3.27280
H          3.28220       -0.81250       -3.63380
H          2.76150        2.22270       -3.38650
H          0.34570        1.21280       -3.95210
H          0.79420        1.56340       -2.27580
H          2.63960        1.68660       -0.91910
H          3.00580        0.57360        0.30140
Br         2.02440       -2.48860        0.62240
Br        -0.55820       -2.57050       -1.13210
Br         2.19760       -3.38380       -2.40790
Br         5.29030        0.70980       -5.17260
Br         5.51590        2.10660       -2.37680
Br         6.11350       -0.96840       -2.68250
