17
TSA8_9_CBr3_F_F
C          1.67710       -1.00000       -1.17750
C          0.90150       -1.06200        0.12170
C          1.62090        0.43150       -1.80680
H          2.74530       -1.17120       -0.91710
F          1.56310       -1.28310        1.28770
C          1.28610       -2.20360       -2.08850
C         -0.14180       -2.20460       -2.57710
C         -1.00700       -3.16360       -2.23220
O         -0.31150       -0.92350        0.14170
F          2.12330       -2.28060       -3.18550
H          1.46740       -3.12510       -1.49010
H         -0.48120       -1.42160       -3.24240
H         -0.71530       -3.97700       -1.57470
H         -2.02390       -3.13740       -2.60990
Br         2.37740        1.71050       -0.55130
Br         2.70690        0.56990       -3.41160
Br        -0.16130        1.08810       -2.23440
