17
TSA8_9_CBr3_F_F
C          1.62960       -1.27280       -1.67430
C          1.15280       -1.70430       -0.27080
C          1.57240        0.28320       -1.83810
H          2.70770       -1.53010       -1.77250
F          1.57180       -2.98740        0.05200
C          0.86480       -2.14280       -2.70750
C         -0.64300       -2.10520       -2.47700
C         -0.92990       -2.45100       -1.00910
O         -0.25380       -1.57160       -0.12260
F          1.16690       -1.80940       -4.01410
H          1.17940       -3.19940       -2.55760
H         -1.06210       -1.11680       -2.73750
H         -0.66560       -3.51040       -0.79370
H         -2.02230       -2.36050       -0.83670
Br        -0.16360        1.12940       -1.59470
Br         2.74500        1.09310       -0.51530
Br         2.26440        0.85140       -3.56230
