16
TSA8_9_H_NH2_Cl
C          1.96580       -0.00050       -0.18550
C          1.50370        0.17660       -1.43480
H          2.19510        0.83650        0.46340
H          2.09470       -1.00000        0.22100
N          1.18110       -0.95030       -2.22970
C          3.21980        2.06660       -4.06200
C          3.38370        2.23170       -2.74310
C          2.19360        2.47690       -1.85230
O          1.31480        1.41660       -1.96110
Cl         4.59900        1.77120       -5.10860
H          2.23050        2.11040       -4.50650
H          4.37750        2.18640       -2.30980
H          1.68970        3.40260       -2.19830
H          2.51520        2.64040       -0.80300
H          0.85180       -0.81720       -3.19850
H          1.31400       -1.91010       -1.87730
