26
TSA8_9_CBr3_Et_CHF2
C          2.90470       -1.20160       -0.43460
C          1.42500       -1.65720       -0.50170
C          2.99140        0.31380       -0.83840
H          3.22230       -1.21400        0.63110
C          0.81250       -2.46980        0.66060
C          3.75060       -2.28400       -1.19540
C          3.16090       -2.59080       -2.57440
C          1.68110       -2.95800       -2.43410
O          0.93140       -1.93600       -1.80430
C          5.26500       -2.05530       -1.29800
H          3.64730       -3.22260       -0.61400
H          3.29070       -1.74470       -3.27270
H          1.55720       -3.92210       -1.90990
H          1.27130       -3.11540       -3.45290
Br         1.77450        1.34140        0.28400
Br         4.72210        1.11230       -0.46330
Br         2.50260        0.73820       -2.67060
C          1.48350       -3.80320        0.98730
H         -0.26500       -2.63650        0.44850
H          0.87960       -1.84020        1.57330
H          1.42930       -4.51720        0.14680
H          0.96020       -4.26750        1.84920
H          2.53970       -3.64550        1.28650
F          5.57150       -1.02260       -2.16390
F          5.80710       -1.81310       -0.04820
H          5.73890       -2.97380       -1.70750
