16
TSA8_9_I_Br_NO2
C          1.96020        1.81090       -1.05780
C          0.76440        1.66470       -1.96040
I          1.51790        0.84130        0.81040
H          2.82470        1.27990       -1.51290
Br         0.91450        0.71930       -3.61520
C          2.32390        3.29930       -0.85460
C          3.52950        3.43770        0.04780
C          3.47290        4.09420        1.21090
O         -0.31190        2.14860       -1.64560
N          2.60930        3.93190       -2.13050
H          1.44930        3.80850       -0.38760
H          4.47180        2.99110       -0.25750
H          2.55130        4.55500        1.55320
H          4.35880        4.17330        1.83260
O          3.50740        3.54270       -2.81570
O          1.87330        4.94240       -2.54140
