25
TSA8_9_Et_OMe_OH
C          2.03330       -1.84490        0.05780
C          0.74210       -2.21110        0.78850
C          1.77020       -0.52730       -0.72330
H          2.83690       -1.64870        0.79660
O          0.65850       -2.31940        2.14200
C          2.46530       -3.06530       -0.80340
C          3.81060       -2.88200       -1.45960
C          3.97160       -2.97960       -2.78310
O         -0.26490       -2.42910        0.13170
O          2.55630       -4.18960        0.03490
H          1.67080       -3.24060       -1.56890
H          4.67700       -2.68250       -0.83480
H          3.13060       -3.18740       -3.43770
H          4.95580       -2.85090       -3.21970
C          3.00070        0.13300       -1.34580
H          1.36540        0.21410        0.00150
H          1.00170       -0.69070       -1.51050
H          3.77520        0.31500       -0.57100
H          2.70460        1.10970       -1.78400
H          3.42500       -0.46490       -2.16910
C          1.70170       -2.17640        3.03130
H          1.32190       -2.33400        4.06140
H          2.12890       -1.15340        2.96630
H          2.48560       -2.93660        2.82540
H          2.45170       -4.99100       -0.54200
