18
TSA8_9_Br_OMe_Cl
C          1.79880       -0.10940       -0.05820
C          1.81520       -0.03360        1.28970
Br         1.60570       -1.67300       -1.15070
H          1.87500        0.81620       -0.62110
O          1.91620        1.20720        1.83000
C          4.50890       -2.78780        3.03000
C          3.77810       -2.24920        2.04820
C          2.27780       -2.36040        2.02770
O          1.72060       -1.10030        2.13870
Cl         6.25610       -2.61450        3.03720
H          4.03770       -3.33170        3.84420
H          4.27350       -1.70310        1.25050
H          1.92520       -2.95950        2.89230
H          1.93410       -2.89550        1.12730
C          2.08300        1.43070        3.18060
H          2.13770        2.52310        3.36530
H          3.03050        0.96320        3.52590
H          1.22820        1.00930        3.75120
