25
TSA8_9_NH2_Et_CHF2
C          2.00140       -0.29070       -0.13430
C          1.41500       -1.05410       -1.10210
N          2.50210        1.03130       -0.26840
H          2.09720       -0.72150        0.85870
C          0.94570       -2.44020       -0.72270
C          3.70200       -1.07750       -3.85370
C          3.21310        0.07230       -3.36210
C          1.72840        0.26800       -3.21840
O          1.19660       -0.71710       -2.41190
C          5.17340       -1.31430       -4.00060
H          3.01980       -1.86850       -4.15470
H          3.88790        0.86920       -3.06250
H          1.27060        0.17330       -4.22540
H          1.44730        1.27590       -2.86460
H          2.48710        1.58010       -1.12710
H          2.90710        1.48720        0.56200
C          1.69870       -3.49150       -1.53570
H         -0.14300       -2.52370       -0.92380
H          1.11180       -2.65820        0.35520
H          1.52340       -3.34650       -2.62300
H          1.34800       -4.50620       -1.25450
H          2.78990       -3.42220       -1.33330
F          5.72390       -0.37190       -4.84950
F          5.78840       -1.24070       -2.76430
H          5.34250       -2.32610       -4.42630
