23
TSA8_9_CF3_CCl3_CBr3
C          1.66350       -0.07450        0.05010
C          1.46920       -1.19350        0.80800
C          1.80620        0.04380       -1.45060
H          1.69790        0.89090        0.53630
C          1.22990       -1.10540        2.31130
C          3.01630       -5.43590       -0.24120
C          3.06920       -4.17550        0.21910
C          2.43050       -3.02920       -0.50820
O          1.46650       -2.46210        0.30620
C          3.66690       -6.57500        0.49940
H          2.49200       -5.64480       -1.16990
H          3.59070       -3.96250        1.14730
H          1.95110       -3.38060       -1.44720
H          3.23540       -2.30200       -0.75330
F          3.07910        0.48970       -1.75250
F          1.55360       -1.12250       -2.13690
F          0.89370        0.98200       -1.89620
Cl         2.50450       -2.01760        3.15770
Cl         1.20160        0.54280        3.01300
Cl        -0.33920       -1.86260        2.68440
Br         3.37430       -8.23730       -0.45320
Br         5.58020       -6.28720        0.64350
Br         2.91190       -6.75290        2.27800
