23
TSA8_9_CF3_CCl3_CBr3
C          2.51740       -2.23510        0.67260
C          0.99370       -2.00780        0.33830
C          3.36880       -1.12940        0.00230
H          2.66120       -2.09990        1.76570
C          0.12060       -1.65530        1.56110
C          2.88720       -3.71470        0.32010
C          2.47160       -4.05960       -1.12770
C          1.16310       -3.35930       -1.51560
O          0.40200       -3.09990       -0.36030
C          4.30940       -4.24550        0.66260
H          2.20300       -4.30370        0.97270
H          3.23300       -3.83510       -1.90350
H          0.59490       -4.00460       -2.21670
H          1.35440       -2.41290       -2.07200
F          4.66220       -1.15760        0.48180
F          3.39000       -1.25850       -1.37290
F          2.85120        0.11500        0.31200
Cl         0.07400       -3.01000        2.72310
Cl         0.71240       -0.19640        2.40020
Cl        -1.54560       -1.32000        1.02390
Br         4.31870       -6.18350        0.50640
Br         5.72620       -3.61360       -0.51480
Br         4.79220       -3.84220        2.50030
