20
TSA8_9_CHF2_I_CF3
C          1.86530       -0.10300        0.03520
C          1.11530       -0.37280        1.11790
C          2.31310       -1.11050       -0.99290
H          2.17140        0.92670       -0.13160
I          0.60710        1.26050        2.39040
C         -0.17560       -4.12990        3.56210
C         -0.38240       -3.45200        2.41990
C         -0.22300       -1.95960        2.35660
O          0.70110       -1.63880        1.38560
C         -0.32560       -5.62250        3.67510
H          0.10820       -3.59160        4.46230
H         -0.67840       -3.97190        1.51350
H          0.10370       -1.56020        3.34150
H         -1.20300       -1.50760        2.09180
F          3.69340       -1.11550       -1.05230
F          1.87110       -2.39330       -0.72440
H          1.91440       -0.80440       -1.98280
F         -0.66650       -6.20450        2.46660
F          0.87050       -6.16330        4.10920
F         -1.30990       -5.90870        4.60280
