20
TSA8_9_CCl3_Cl_Me
C          1.52800       -0.47780       -0.12980
C          2.21560       -1.29260        0.70360
C          2.09950        0.18430       -1.36470
H          0.49280       -0.25890        0.10150
Cl         3.91990       -1.66590        0.45320
C          0.23810       -4.91960        1.76330
C          0.44590       -3.76180        1.12370
C          0.38170       -2.44030        1.84340
O          1.63030       -1.84630        1.79980
C          0.35250       -6.23210        1.04950
H         -0.00300       -4.92930        2.82400
H          0.69570       -3.76530        0.06500
H          0.11480       -2.59980        2.90990
H         -0.40350       -1.79330        1.40310
Cl         2.58540       -1.04180       -2.56480
Cl         0.85820        1.22090       -2.11570
Cl         3.49300        1.22580       -0.96440
H          1.38130       -6.35000        0.64610
H         -0.37930       -6.27930        0.21680
H          0.15110       -7.06210        1.75760
