20
TSA8_9_CCl3_Cl_Me
C          1.37310       -2.05500        0.26890
C          2.00910       -1.31770        1.51140
C          2.15780       -1.82860       -1.06720
H          0.38150       -1.58330        0.09110
Cl         3.75890       -1.62150        1.71670
C          1.13120       -3.52650        0.71280
C          0.18700       -3.53790        1.93970
C          0.13380       -2.18130        2.66140
O          1.41440       -1.60700        2.77730
C          0.58540       -4.48180       -0.35570
H          2.11170       -3.93520        1.04120
H         -0.86480       -3.78560        1.67360
H         -0.29910       -2.33300        3.67160
H         -0.54500       -1.46900        2.14100
Cl         3.67330       -2.77020       -1.18770
Cl         1.15530       -2.24900       -2.48650
Cl         2.54770       -0.09620       -1.26820
H          1.30520       -4.59500       -1.19020
H         -0.38990       -4.11880       -0.74560
H          0.44080       -5.49290        0.08170
