22
TSA8_9_NO2_CHF2_CBr3
C          2.85830       -0.43840        1.72900
C          1.66050        0.30200        2.29550
N          2.50590       -0.98380        0.42600
H          3.66700        0.30820        1.56830
C          1.70740        1.79500        2.48450
C          3.44990       -1.56440        2.64910
C          2.44110       -2.66900        2.91670
C          2.62200       -3.91850        2.47630
O          0.63060       -0.30280        2.55550
C          4.06560       -1.06960        3.99430
H          4.30270       -1.99000        2.07200
H          1.54460       -2.45170        3.48750
H          1.87950       -4.68030        2.69080
H          3.50190       -4.19220        1.90300
O          3.07720       -0.60670       -0.55230
O          1.53970       -1.86950        0.30390
F          0.50220        2.26320        2.97890
F          2.71690        2.13820        3.36260
H          1.90290        2.27990        1.50540
Br         4.96400       -2.54600        4.88800
Br         5.43330        0.28170        3.70610
Br         2.76410       -0.36800        5.26090
