22
TSA8_9_NO2_CHF2_CBr3
C          1.62840       -0.01250        0.02380
C          1.45600        0.11630        1.36680
N          1.77790       -1.24040       -0.68770
H          1.62380        0.89620       -0.57520
C          1.21180        1.48220        1.95130
C          4.18800       -2.48330        4.06380
C          3.17060       -1.68920        3.69920
C          2.49610       -1.85340        2.37060
O          1.49040       -0.91020        2.26030
C          4.89300       -2.30930        5.38340
H          4.51780       -3.26640        3.38610
H          2.83360       -0.90170        4.36870
H          2.05790       -2.87140        2.29930
H          3.26660       -1.71700        1.57920
O          1.97330       -1.20410       -1.86420
O          1.51150       -2.39930       -0.12740
F         -0.00690        1.48890        2.60310
F          2.21200        1.77340        2.86090
H          1.19960        2.27800        1.17650
Br         6.29990       -3.62980        5.56110
Br         5.69940       -0.54720        5.48850
Br         3.65500       -2.53420        6.86010
