22
TSA8_9_NO2_CHF2_CBr3
C          3.18060       -0.65790        1.63060
C          1.66590       -0.32460        1.65460
N          3.52780       -1.10470        0.28790
H          3.72600        0.29110        1.82640
C          1.22620        0.86920        2.51640
C          3.59700       -1.74490        2.67180
C          2.38640       -2.23100        3.47290
C          1.23050       -2.53380        2.51140
O          0.77490       -1.43160        1.72920
C          4.78680       -1.33530        3.57870
H          3.93890       -2.64270        2.10690
H          2.06000       -1.50610        4.23650
H          0.37970       -2.90840        3.11650
H          1.53900       -3.34960        1.82350
O          4.30370       -0.48000       -0.37100
O          2.97280       -2.18610       -0.21790
F         -0.08590        1.18610        2.21980
F          1.32860        0.62250        3.86770
H          1.85720        1.74810        2.26810
Br         5.32110       -2.82620        4.70560
Br         6.34020       -0.84890        2.51770
Br         4.36290        0.16700        4.73880
