19
TSA8_9_CHF2_F_NH2
C          1.80840        0.00990        0.02720
C          1.12290        1.01420        0.59740
C          2.10810       -1.31970        0.67390
H          2.17660        0.15550       -0.98420
F          0.92180        2.15460       -0.11990
C         -0.17290        2.23050        4.89560
C         -0.50250        1.48050        3.83380
C         -0.14630        1.89200        2.43470
O          0.63090        0.91250        1.85600
N         -0.52060        1.82720        6.20870
H          0.36610        3.16390        4.76080
H         -1.04510        0.55010        3.97640
H          0.40550        2.85840        2.43220
H         -1.08400        2.01480        1.85020
F          3.47730       -1.50040        0.72630
F          1.59320       -1.42900        1.95310
H          1.66560       -2.12360        0.04940
H         -1.03060        0.94790        6.38000
H         -0.26270        2.42050        7.00980
