19
TSA8_9_CHF2_F_NH2
C          1.57560        0.73110        2.20260
C          1.14020        1.46040        0.91590
C          1.34930       -0.78630        2.02370
H          2.66750        0.88210        2.35020
F          1.57560        2.77780        0.88510
C          0.80850        1.37780        3.38670
C         -0.70190        1.37490        3.10920
C         -0.95830        2.03910        1.75040
O         -0.26200        1.37320        0.70790
N          1.11780        0.74860        4.67170
H          1.13400        2.44180        3.44630
H         -1.09840        0.33740        3.09690
H         -0.69270        3.11950        1.77960
H         -2.04640        1.98940        1.53800
F          2.04520       -1.22810        0.91150
F          1.81610       -1.48790        3.11950
H          0.27640       -1.02270        1.87240
H          0.65900       -0.18770        4.73820
H          0.72070        1.33800        5.43920
