20
TSA8_9_CBr3_Br_CH2F
C          1.44340       -2.00040        0.19220
C          1.91520       -1.18180        1.45570
C          2.34640       -1.78730       -1.07140
H          0.45810       -1.57950       -0.10200
Br         3.77940       -1.43450        1.95910
C          1.22440       -3.46310        0.67880
C          0.19790       -3.47540        1.83830
C         -0.03940       -2.08320        2.44450
O          1.16900       -1.38970        2.65420
C          0.81160       -4.49260       -0.38490
H          2.19350       -3.81210        1.09800
H         -0.80190       -3.85440        1.53160
H         -0.56370       -2.20640        3.41340
H         -0.71300       -1.46980        1.80640
Br         1.42280       -2.29260       -2.70790
Br         2.73980        0.10220       -1.31520
Br         4.03000       -2.76730       -1.05620
F         -0.39260       -4.14220       -0.97120
H          0.70040       -5.49230        0.08720
H          1.59230       -4.59290       -1.16310
