19
TSA8_9_OH_CBr3_OH
C          2.81320       -1.48090       -1.22390
C          1.52090       -2.08860       -0.70790
O          2.64070       -0.10000       -1.40940
H          3.62800       -1.64150       -0.47880
C          1.45550       -2.76280        0.64690
C          3.30170       -2.13820       -2.54010
C          2.31290       -2.04130       -3.68560
C          1.92480       -0.87820       -4.21830
O          0.51080       -2.00480       -1.39210
O          3.57650       -3.49260       -2.28970
H          4.24660       -1.62440       -2.83810
H          1.90970       -2.95870       -4.10560
H          1.21820       -0.87220       -5.04180
H          2.30440        0.07000       -3.85570
H          2.70580        0.32350       -0.51350
Br         1.94750       -1.50680        2.03930
Br        -0.33270       -3.41610        1.04750
Br         2.66190       -4.27810        0.71760
H          4.24120       -3.78470       -2.96750
