17
TSA8_9_CF3_H_H
C          1.71420        0.68060        1.53550
C          0.99070        1.25940        0.34250
C          1.54060       -0.85200        1.58870
H          2.79640        0.88110        1.37070
H          1.55890        1.78060       -0.42150
C          1.36520        1.36690        2.88620
C         -0.05160        1.20910        3.38590
C         -1.09300        1.84880        2.84650
O         -0.20890        1.10290        0.18290
H          2.02980        0.91360        3.65330
H          1.61680        2.44940        2.84720
H         -0.22610        0.57930        4.25360
H         -0.97030        2.52760        2.01080
H         -2.08590        1.71270        3.26240
F          2.29960       -1.38110        2.61780
F          0.21490       -1.19580        1.78850
F          1.97030       -1.41330        0.39860
