19
TSA8_9_Cl_NH2_CHF2
C          1.88610        0.12770        0.09730
C          1.53990        1.17070        0.89260
Cl         2.11200       -1.54840        0.58080
H          2.02020        0.30800       -0.96530
N          1.37070        2.44300        0.28510
C          3.94030        0.69470        4.35620
C          3.30950        0.29680        3.24140
C          1.80690        0.19650        3.17020
O          1.33250        1.10210        2.24080
C          5.43210        0.83080        4.39880
H          3.37160        0.94060        5.24930
H          3.89010        0.06140        2.35440
H          1.36160        0.45880        4.15280
H          1.47340       -0.83320        2.95130
H          1.12240        3.25800        0.86540
H          1.51850        2.58400       -0.72540
F          6.02980       -0.38780        4.13330
F          5.84520        1.76110        3.46140
H          5.74440        1.17580        5.40640
