19
TSA8_9_Cl_NH2_CHF2
C          3.20040        0.76290        1.52160
C          1.69820        1.16760        1.37960
Cl         3.39890       -0.93390        0.98110
H          3.82700        1.37650        0.83860
N          1.58250        2.49460        0.78570
C          3.63200        0.96760        2.98800
C          2.73690        0.13020        3.92410
C          1.30840        0.01210        3.36610
O          0.97950        1.15880        2.61530
C          5.12510        0.72190        3.25960
H          3.43270        2.03840        3.21970
H          3.11070       -0.90300        4.09660
H          0.59570       -0.11680        4.20650
H          1.19730       -0.89620        2.73080
H          0.56630        2.72400        0.69670
H          1.96420        2.45200       -0.18680
F          5.47580       -0.59380        3.01570
F          5.89600        1.55170        2.46520
H          5.34790        0.95150        4.32350
