21
TSA8_9_CBr3_OMe_Cl
C          1.14090       -1.06780        0.64600
C          2.41910       -1.71820        1.14470
C          1.43920        0.27520       -0.09240
H          0.70440       -1.73440       -0.13390
O          3.17950       -1.09630        2.08450
C          0.06160       -0.97710        1.77110
C         -0.32800       -2.35950        2.23920
C         -1.57320       -2.82870        2.10510
O          2.76040       -2.79710        0.67960
Cl         0.56860       -0.04400        3.21040
H         -0.84000       -0.47670        1.36080
H          0.42320       -2.99490        2.69930
H         -2.35640       -2.22900        1.65130
H         -1.81710       -3.82720        2.45250
Br        -0.17600        1.01430       -0.88250
Br         2.24810        1.66730        1.00140
Br         2.65710       -0.04720       -1.57450
C          4.38250       -1.55830        2.58240
H          5.17190       -0.80650        2.37430
H          4.68970       -2.52540        2.13080
H          4.29590       -1.68980        3.68040
