21
TSA8_9_CBr3_OMe_Cl
C          1.28860       -0.46650       -0.19760
C          1.94750       -0.96650        0.87330
C          1.98310        0.19740       -1.36440
H          0.20950       -0.54920       -0.25020
O          3.29820       -0.85260        0.93160
C         -1.08920       -2.38380        4.20040
C         -0.30960       -2.72920        3.17120
C         -0.06180       -1.82160        2.00450
O          1.29810       -1.60190        1.89410
Cl        -1.34060       -3.50550        5.52750
H         -1.57900       -1.41510        4.23140
H          0.16330       -3.70790        3.16740
H         -0.59340       -0.85130        2.11150
H         -0.43220       -2.34490        1.09690
Br         0.66910        0.77020       -2.67030
Br         2.98270        1.76290       -0.79970
Br         3.18020       -1.05370       -2.24160
C          4.05340       -1.28140        2.00220
H          5.12490       -1.08810        1.79190
H          3.90930       -2.37160        2.16150
H          3.76270       -0.72600        2.91910
