23
TSA8_9_CBr3_I_Et
C          1.23260       -1.93260        1.24090
C          1.08460       -0.39260        1.36620
C          2.30440       -2.37480        0.19110
H          0.25510       -2.23590        0.81030
I          2.71220        0.72080        2.23310
C          1.37320       -2.51630        2.68900
C          0.52530       -1.68390        3.67580
C         -0.59910       -0.88950        2.99910
O         -0.14110       -0.00160        1.98000
C          1.09490       -4.03250        2.84470
H          2.41370       -2.35950        3.04200
H          0.23210       -2.23470        4.59550
H         -1.09050       -0.27980        3.78530
H         -1.35770       -1.58120        2.57620
Br         2.09590       -1.35260       -1.45150
Br         4.14500       -2.17020        0.78330
Br         2.08290       -4.22290       -0.36390
C         -0.32080       -4.46560        2.45720
H          1.25960       -4.31150        3.90860
H          1.83090       -4.61750        2.26500
H         -1.07600       -3.94190        3.07840
H         -0.42760       -5.55730        2.63000
H         -0.52350       -4.27040        1.38550
