23
TSA8_9_OMe_NH2_Me
C          1.58280        0.17640       -0.05330
C          1.23670       -0.67180        0.92350
O          1.65180       -0.26890       -1.32820
H          1.78050        1.22090        0.17580
N          1.12770       -0.21430        2.26700
C         -0.87470       -4.68470       -0.09010
C         -0.79680       -3.36970        0.15510
C          0.09650       -2.80670        1.22040
O          0.99240       -1.96550        0.59550
C         -1.74150       -5.20540       -1.19330
H         -0.29710       -5.38920        0.50180
H         -1.37890       -2.67580       -0.44530
H          0.65500       -3.61140        1.74570
H         -0.53400       -2.26530        1.95730
C          1.85320        0.57270       -2.39560
H          1.86380       -0.02460       -3.33060
H          2.82290        1.10360       -2.29150
H          1.02340        1.31030       -2.45650
H          0.90440       -0.86600        3.03200
H          1.31400        0.77120        2.50570
H         -1.39800       -4.79020       -2.16540
H         -2.79850       -4.91200       -1.02220
H         -1.67310       -6.31210       -1.23430
