21
TSA8_9_Et_Br_OH
C          2.38500       -0.14260       -1.38540
C          1.10860       -0.95360       -1.44910
C          2.27140        0.86940       -0.21350
H          3.18980       -0.86980       -1.13730
Br         1.17320       -2.85040       -1.20640
C          2.78560        0.48400       -2.76030
C          1.92990        1.64880       -3.22040
C          0.67850        1.52010       -3.66930
O          0.02060       -0.41790       -1.58120
O          4.11910        0.91940       -2.67530
H          2.74890       -0.32510       -3.52880
H          2.37150        2.64160       -3.23020
H          0.19330        0.55600       -3.74110
H          0.13320        2.39710       -4.00250
C          3.55840        1.62910        0.10650
H          1.99400        0.30420        0.70410
H          1.46260        1.60410       -0.41950
H          4.38140        0.91710        0.32820
H          3.39210        2.26760        0.99970
H          3.85060        2.29980       -0.72520
H          4.47510        0.96190       -3.60200
