20
TSA8_9_Et_I_F
C          1.76420       -0.23240        0.06330
C          1.37920       -1.51540       -0.16040
C          1.93100        0.91990       -0.89890
H          1.97810        0.02740        1.09550
I          1.25340       -2.76530        1.53950
C          2.88670       -1.12220       -4.29950
C          2.56810       -1.48940       -3.05640
C          1.13440       -1.69960       -2.65090
O          1.05170       -2.12270       -1.34020
F          4.18880       -0.94200       -4.64180
H          2.11510       -0.96560       -5.04720
H          3.36090       -1.64040       -2.32920
H          0.71460       -2.50260       -3.29240
H          0.49860       -0.80580       -2.81340
C          3.36670        1.43160       -0.86340
H          1.25000        1.73640       -0.57690
H          1.68320        0.69360       -1.93910
H          3.64300        1.74540        0.16610
H          3.46670        2.30760       -1.53890
H          4.06540        0.63790       -1.20340
