18
TSA8_9_CCl3_Cl_OH
C          1.59980       -1.28820       -1.73220
C          1.15760       -1.69990       -0.30910
C          1.52950        0.26880       -1.90020
H          2.67760       -1.53740       -1.85400
Cl         1.80480       -3.28400        0.23120
C          0.80870       -2.16880       -2.74080
C         -0.69530       -2.11290       -2.47010
C         -0.94850       -2.45920       -0.99720
O         -0.24740       -1.58960       -0.11970
O          1.09160       -1.82300       -4.06940
H          1.13520       -3.22230       -2.56900
H         -1.11500       -1.12140       -2.72000
H         -0.69240       -3.52180       -0.79410
H         -2.03610       -2.36090       -0.80060
Cl         2.12350        0.78960       -3.50110
Cl        -0.08040        1.00110       -1.64740
Cl         2.61930        1.02760       -0.70410
H          0.78980       -2.58190       -4.63430
