15
TSA8_9_Br_CN_Cl
C          1.67860        0.02020       -0.06940
C          1.49790        0.79110       -1.18510
Br         1.82100        0.50650        1.79170
H          1.67610       -1.05730       -0.18930
C          1.41270        0.12590       -2.46700
C          2.52560        4.86070        0.38230
C          2.27910        3.55100        0.38610
C          1.01620        2.98700       -0.18300
O          1.34720        2.14400       -1.21680
Cl         4.00940        5.48070        1.08060
H          1.81320        5.55920       -0.04270
H          3.01270        2.87020        0.80430
H          0.35100        3.79700       -0.56320
H          0.41170        2.45760        0.57850
N          1.34710       -0.42280       -3.48500
