17
TSA8_9_Br_CHF2_Cl
C          2.03990       -0.30960       -0.16270
C          1.50760       -1.30100       -0.92420
Br         2.78600        1.36620       -0.72920
H          2.04810       -0.42720        0.91670
C          0.94600       -2.51700       -0.23740
C          4.17200       -1.43280       -4.27480
C          3.55880       -0.88930       -3.21730
C          2.08880       -0.55460       -3.23550
O          1.42050       -1.30400       -2.28830
Cl         5.88250       -1.82330       -4.20340
H          3.62700       -1.64700       -5.18880
H          4.13370       -0.69510       -2.31810
H          1.65740       -0.80720       -4.22760
H          1.90910        0.52700       -3.09370
F         -0.39110       -2.65200       -0.56030
F          1.62960       -3.63780       -0.67120
H          1.03610       -2.45990        0.86850
