17
TSA8_9_Br_CHF2_Cl
C          3.00600       -0.99050       -1.19000
C          1.45760       -1.16650       -1.31710
Br         3.41650        0.86360       -0.74510
H          3.40420       -1.59090       -0.34260
C          0.96900       -2.42370       -0.59430
C          3.66620       -1.41930       -2.50680
C          3.10570       -0.60620       -3.68510
C          1.63520       -0.22500       -3.44300
O          0.99340       -1.21360       -2.66870
Cl         5.44830       -1.32520       -2.45290
H          3.39530       -2.48380       -2.67520
H          3.66600        0.33430       -3.87930
H          1.12100       -0.10220       -4.41820
H          1.55330        0.76190       -2.93260
F         -0.41050       -2.48960       -0.66070
F          1.50630       -3.55910       -1.17440
H          1.26670       -2.38350        0.47460
