19
TSA8_9_NH2_Br_CHF2
C          1.52680       -2.38910        0.49900
C          1.17670       -0.98140        0.93150
N          1.55120       -2.48230       -0.96380
H          2.55280       -2.60790        0.87120
Br         2.42010        0.04890        1.95490
C          0.57980       -3.44650        1.13690
C         -0.86920       -3.24530        0.74050
C         -1.81480       -2.96990        1.64480
O          0.10520       -0.48080        0.62590
C          1.01740       -4.88070        0.78750
H          0.67990       -3.33980        2.24170
H         -1.15570       -3.32830       -0.30300
H         -1.57580       -2.87900        2.70020
H         -2.84380       -2.83260        1.32950
H          2.27870       -1.83100       -1.33990
H          0.62730       -2.21150       -1.36940
F          0.22730       -5.79310        1.46490
F          0.91150       -5.12260       -0.57180
H          2.07220       -5.03980        1.09740
