19
TSA8_9_NH2_Br_CHF2
C          1.98740       -0.10940        0.13840
C          1.17320       -0.73030        1.00290
N          2.39530       -0.71640       -1.07740
H          2.34710        0.88930        0.36880
Br         0.67950        0.19420        2.61770
C         -0.19400       -5.15370        1.56960
C         -0.44880       -4.00900        0.91800
C         -0.16900       -2.66850        1.53250
O          0.71400       -1.97940        0.73060
C         -0.47920       -6.48660        0.94550
H          0.22580       -5.13080        2.57160
H         -0.87210       -4.03910       -0.08280
H          0.26050       -2.78180        2.55300
H         -1.12490       -2.10670        1.60470
H          3.01850       -0.20360       -1.71730
H          2.07820       -1.65990       -1.34410
F         -1.82620       -6.59290        0.65040
F          0.26030       -6.63360       -0.21410
H         -0.20140       -7.29510        1.65400
