19
TSA8_9_NH2_Br_CHF2
C          1.52890       -2.63830        0.58010
C          1.13490       -1.24440        1.10930
N          1.42580       -2.66480       -0.88290
H          2.58970       -2.84290        0.84440
Br         1.72250       -0.87960        2.93470
C          0.62440       -3.70490        1.24670
C         -0.85030       -3.31940        1.07100
C         -1.06110       -1.89150        1.58980
O         -0.24140       -0.95690        0.90300
C          0.89060       -5.13330        0.74350
H          0.83920       -3.69710        2.33870
H         -1.15640       -3.37660        0.00500
H         -0.89520       -1.84110        2.68770
H         -2.12370       -1.61720        1.42490
H          2.11780       -1.99210       -1.28640
H          0.47520       -2.37600       -1.20390
F          0.59920       -5.25700       -0.60390
F          2.21430       -5.47510        0.95500
H          0.25030       -5.84680        1.30480
