22
TSA8_9_OMe_OH_Me
C          2.40970       -1.24170       -0.32110
C          1.27760       -1.29970        0.68450
O          2.01190       -0.42770       -1.41590
H          3.30700       -0.84620        0.21640
O          1.46210       -0.87760        1.95480
C          2.79980       -2.65220       -0.83300
C          1.70200       -3.25750       -1.68170
C          1.09390       -4.40110       -1.35550
O          0.18160       -1.72140        0.35170
C          4.08910       -2.58560       -1.66200
H          3.01230       -3.29570        0.05010
H          1.39850       -2.74750       -2.59230
H          1.36390       -4.94670       -0.45720
H          0.31410       -4.79870       -1.99740
C          2.70310        0.79950       -1.41640
H          3.77650        0.64270       -1.65970
H          2.57320        1.34020       -0.45250
H          2.26910        1.44220       -2.20990
H          2.31120       -0.53110        2.26520
H          4.91690       -2.17410       -1.04520
H          3.95530       -1.94260       -2.55710
H          4.38030       -3.60560       -1.99150
