22
TSA8_9_OMe_OH_Me
C          1.55970       -0.11040        0.12200
C          1.48080       -1.16360        0.96910
O          1.40580       -0.23830       -1.21560
H          1.73140        0.87800        0.54210
O          1.60730       -0.94290        2.29770
C          3.49150       -4.17690       -1.32010
C          2.82600       -3.03250       -1.10560
C          1.38010       -3.02550       -0.67710
O          1.26090       -2.45330        0.57660
C          4.93400       -4.16820       -1.72200
H          2.99300       -5.13450       -1.19670
H          3.34080       -2.08400       -1.22890
H          1.00150       -4.06780       -0.60830
H          0.73930       -2.50940       -1.41960
C          1.39780        0.82990       -2.08890
H          2.21360        0.70470       -2.82980
H          1.53360        1.80220       -1.56580
H          0.42610        0.85250       -2.62490
H          1.76440       -0.06490        2.67480
H          5.54040       -3.66820       -0.93700
H          5.05850       -3.62860       -2.68420
H          5.29530       -5.21060       -1.84280
