22
TSA8_9_OMe_OH_Me
C          2.73780       -1.32300       -0.48790
C          1.51320       -1.36020        0.48350
O          2.35970       -0.87500       -1.77890
H          3.54000       -0.66350       -0.07810
O          1.96770       -1.20500        1.79480
C          3.27290       -2.75990       -0.58800
C          2.17640       -3.68830       -1.15430
C          0.76620       -3.15580       -0.84110
O          0.72270       -2.55080        0.43140
C          4.56380       -2.86110       -1.40560
H          3.50080       -3.09620        0.44830
H          2.23250       -3.80930       -2.25880
H          0.04300       -3.99570       -0.88900
H          0.42880       -2.42280       -1.60810
C          2.05320        0.50730       -1.78140
H          2.72680        1.02380       -2.49570
H          2.15810        1.01520       -0.79400
H          1.00220        0.63940       -2.11120
H          1.57170       -0.34820        2.09570
H          5.35170       -2.22200       -0.95340
H          4.39400       -2.53220       -2.45310
H          4.92610       -3.91130       -1.41380
