16
TSA8_9_F_NO2_F
C          3.05040        1.03260       -0.79100
C          1.60080        1.19920       -1.20960
F          3.12250        0.09640        0.22680
H          3.63110        0.63250       -1.64750
N          1.19740        0.97090       -2.49300
C          3.78120        2.32770       -0.36550
C          3.27740        2.97920        0.90200
C          2.12620        3.65210        0.98080
O          0.77110        1.50620       -0.36590
F          5.10760        1.99000       -0.15320
H          3.76240        3.07000       -1.19300
H          3.90620        2.94000        1.78740
H          1.47740        3.77230        0.12170
H          1.83620        4.11510        1.91870
O          0.04650        1.09130       -2.78970
O          2.06130        0.62050       -3.42190
