16
TSA8_9_F_NO2_F
C          2.94560        1.07280       -0.54900
C          1.42870        1.34890       -0.79720
F          3.13480        0.58300        0.73300
H          3.32720        0.30170       -1.25210
N          1.11430        1.15450       -2.20090
C          3.70290        2.38870       -0.70840
C          3.19030        3.41740        0.31280
C          1.73090        3.13360        0.71240
O          0.99440        2.65510       -0.39100
F          5.06730        2.20870       -0.56390
H          3.50160        2.77330       -1.73190
H          3.78850        3.41860        1.25030
H          1.27220        4.06430        1.10530
H          1.67550        2.39240        1.54190
O          0.64790        2.04130       -2.85170
O          1.27800       -0.03000       -2.74880
