22
TSA8_9_CF3_NO2_CCl3
C          2.22810       -1.54640       -1.25440
C          1.00890       -2.27200       -0.69720
C          1.95940       -0.02100       -1.14300
H          3.11470       -1.75250       -0.61870
N          1.08750       -3.05690        0.41490
C          2.55890       -2.01110       -2.72270
C          3.71640       -1.19340       -3.27030
C          3.58170       -0.40170       -4.34020
O         -0.06800       -2.13790       -1.26600
C          2.92370       -3.52910       -2.86250
H          1.66000       -1.82600       -3.35350
H          4.68470       -1.24840       -2.78110
H          2.63260       -0.31480       -4.86010
H          4.43020        0.16880       -4.70280
F          3.08250        0.71440       -1.47580
F          0.91720        0.35610       -1.97270
F          1.62760        0.29950        0.16290
O          0.11310       -3.61050        0.82820
O          2.23000       -3.21860        1.04810
Cl         3.34300       -3.91260       -4.55940
Cl         4.32330       -3.97680       -1.84270
Cl         1.57460       -4.62720       -2.45980
