22
TSA8_9_CF3_NO2_CCl3
C          2.19120       -1.88040       -1.16990
C          0.74840       -1.30950       -1.42440
C          3.09660       -0.76880       -0.58610
H          2.12450       -2.65050       -0.37000
N         -0.23290       -1.99450       -0.60210
C          2.68050       -2.58570       -2.47590
C          2.56720       -1.63720       -3.69080
C          1.33920       -0.72430       -3.57510
O          0.35000       -1.35210       -2.79400
C          4.03410       -3.35130       -2.45330
H          1.90770       -3.37250       -2.63790
H          3.45870       -1.00210       -3.87590
H          0.94890       -0.50220       -4.58940
H          1.60180        0.26600       -3.13810
F          4.28340       -1.30020       -0.12350
F          3.37430        0.21580       -1.51450
F          2.46380       -0.18280        0.49660
O         -1.15320       -2.56730       -1.10200
O         -0.12490       -1.96480        0.70850
Cl         4.16660       -4.35570       -3.92510
Cl         5.46910       -2.28600       -2.43530
Cl         4.12020       -4.46090       -1.05770
