24
TSA8_9_CCl3_Et_CN
C          1.58470       -0.05950        0.08310
C          1.30590       -0.61700        1.31970
C          1.68420       -0.46540       -1.39340
H          1.72730        1.01950        0.13770
C          1.59710        0.28950        2.50980
C          2.07960       -4.84360        1.96830
C          1.85220       -3.84690        1.10270
C          0.56500       -3.07180        1.08100
O          0.79100       -1.84400        1.65680
C          3.35160       -5.51660        1.93910
H          1.32790       -5.17120        2.69210
H          2.64610       -3.58310        0.41490
H         -0.16690       -3.61160        1.73140
H          0.06430       -3.00250        0.09920
Cl         1.53230       -2.17760       -1.81270
Cl         0.63340        0.44950       -2.53100
Cl         3.33620        0.04850       -1.79610
C          1.38480       -0.36920        3.88670
H          0.92580        1.15040        2.42600
H          2.65610        0.66720        2.46460
H          0.32970       -0.68600        3.96150
H          1.59120        0.37450        4.68690
H          2.02880       -1.26170        4.08220
N          4.36990       -6.06500        1.92580
