24
TSA8_9_Br_Et_OMe
C          1.75060        0.46770       -0.04950
C          1.41780        0.54860        1.24870
Br         2.22140       -1.20210       -0.86520
H          1.76210        1.35200       -0.67890
C          1.02040        1.88590        1.85000
C          4.26600       -2.36110        2.37660
C          2.94170       -2.23510        2.58650
C          2.32090       -0.91880        2.95490
O          1.39210       -0.58850        1.98920
O          4.86190       -3.53220        2.02050
H          4.90560       -1.49070        2.48760
H          2.27910       -3.08840        2.48190
H          3.10600       -0.13640        3.04430
H          1.80900       -1.02160        3.93470
C          1.92240        2.33040        2.99630
H         -0.02450        1.81560        2.21920
H          1.05090        2.68170        1.07320
H          1.85330        1.62730        3.85070
H          1.59310        3.32810        3.35600
H          2.97510        2.40720        2.65040
C          4.21720       -4.72980        1.78730
H          4.96800       -5.49680        1.50720
H          3.49530       -4.61880        0.94980
H          3.68950       -5.06780        2.70420
