17
TSA8_9_Cl_Cl_CF3
C          1.86420        0.00410       -0.22210
C          1.43350        0.64010       -1.32110
Cl         2.19010        0.84430        1.28940
H          1.99780       -1.07300       -0.24070
Cl         1.07660       -0.28830       -2.76950
C          2.33840        3.01990       -3.87860
C          2.98640        2.81140       -2.72310
C          2.26800        2.90360       -1.40370
O          1.23800        1.98280       -1.34100
C          3.04460        2.92990       -5.19890
H          1.27790        3.25860       -3.86620
H          4.04680        2.57510       -2.72790
H          1.84510        3.92450       -1.30030
H          2.98690        2.74290       -0.57340
F          3.56580        1.66020       -5.36760
F          2.15100        3.18990       -6.22190
F          4.06900        3.85760       -5.24860
