17
TSA8_9_Cl_Cl_CF3
C          2.11090        0.89160       -2.39110
C          0.97790        1.15720       -1.35400
Cl         3.60330        0.37260       -1.54270
H          1.82570        0.03470       -3.03910
Cl        -0.59110        0.66850       -2.05050
C          2.31500        2.17400       -3.22040
C          2.69710        3.34530       -2.29050
C          2.09320        3.17020       -0.88580
O          0.84240        2.52370       -0.95370
C          3.29840        2.02740       -4.39590
H          1.32090        2.41610       -3.65950
H          3.79410        3.47100       -2.16020
H          1.98360        4.16720       -0.41130
H          2.77190        2.59440       -0.21850
F          4.57570        1.74120       -3.94830
F          2.87880        1.01070       -5.23510
F          3.33660        3.20660       -5.11870
