26
TSA8_9_Et_CH2F_CCl3
C          1.77550       -0.17560       -0.12530
C          1.36110       -0.80470       -1.24830
C          1.89360        1.32090        0.02320
H          2.01930       -0.76680        0.75360
C          1.20350       -2.30290       -1.25240
C          3.64450       -0.21380       -4.91550
C          2.70800       -0.57190       -4.02350
C          1.96650        0.46620       -3.22780
O          1.04010       -0.11680       -2.37730
C          4.39510       -1.23290       -5.73340
H          3.86720        0.84130       -5.05280
H          2.48010       -1.62240       -3.88370
H          1.42290        1.12190       -3.94010
H          2.68960        1.08780       -2.66120
C          3.33080        1.71430        0.34290
H          1.23390        1.64290        0.85670
H          1.55960        1.86210       -0.88440
H          3.66580        1.22460        1.28230
H          3.39460        2.81520        0.47410
H          4.00610        1.41350       -0.48630
F         -0.10840       -2.62630       -1.54430
H          1.46840       -2.75320       -0.27170
H          1.86480       -2.75380       -2.01750
Cl         3.26540       -2.17130       -6.74510
Cl         5.55950       -0.41290       -6.80430
Cl         5.29530       -2.34580       -4.66980
