26
TSA8_9_Et_CH2F_CCl3
C          2.61050       -0.30640       -1.65630
C          1.12680       -0.75930       -1.72130
C          2.66100        0.92130       -0.70640
H          3.19890       -1.10190       -1.14950
C          0.86800       -2.22320       -2.09150
C          3.18730        0.00910       -3.08350
C          2.06350        0.09130       -4.13210
C          0.83860        0.79360       -3.53630
O          0.25580        0.13190       -2.41390
C          4.33490       -0.93730       -3.53920
H          3.62800        1.02670       -3.06040
H          1.75260       -0.90460       -4.49770
H          0.07200        0.85910       -4.33550
H          1.11050        1.83120       -3.24980
C          4.08040        1.36670       -0.34370
H          2.16250        0.64650        0.24990
H          2.10910        1.78090       -1.14040
H          4.63090        0.53300        0.14070
H          4.02530        2.21350        0.37250
H          4.64800        1.71200       -1.22990
F         -0.46050       -2.52310       -1.85690
H          1.49250       -2.88180       -1.45380
H          1.08860       -2.44370       -3.14900
Cl         3.82000       -2.64130       -3.66960
Cl         4.96130       -0.42920       -5.13330
Cl         5.70670       -0.87220       -2.39910
