23
TSA8_9_OMe_CHF2_NH2
C          1.53600        0.06510        0.12450
C          1.27060       -1.13000       -0.42110
O          1.60820        1.15520       -0.67490
H          1.66050        0.16830        1.19940
C          1.16410       -2.36460        0.45020
C         -0.42830       -1.08510       -4.75500
C         -0.46110       -0.90290       -3.42930
C          0.16530       -1.87590       -2.47260
O          1.13020       -1.18700       -1.76960
N         -0.99670       -0.12790       -5.63060
H          0.04560       -1.96780       -5.17530
H         -0.93600       -0.01580       -3.01810
H          0.63680       -2.72430       -3.01120
H         -0.63230       -2.26800       -1.80820
C          1.73290        2.43280       -0.17940
H          1.76720        3.14640       -1.02860
H          2.66840        2.52650        0.41200
H          0.85610        2.67780        0.45550
F         -0.09260       -2.93060        0.36940
F          2.10870       -3.29020        0.04480
H          1.35440       -2.12100        1.51720
H         -1.42680        0.73620       -5.27190
H         -0.95550       -0.28010       -6.64970
