23
TSA8_9_OMe_CHF2_NH2
C          0.87840       -0.10250       -1.89020
C          1.52670       -1.40170       -1.31750
O          1.77210        0.98780       -1.72670
H         -0.13300        0.07910       -1.45300
C          1.47420       -1.50900        0.20860
C          0.64480       -0.33800       -3.38790
C         -0.29520       -1.54690       -3.59560
C         -0.19680       -2.54170       -2.42760
O          1.12740       -2.62330       -1.94820
N          0.11940        0.85820       -4.04560
H          1.63190       -0.58850       -3.83830
H         -1.36520       -1.25950       -3.68130
H         -0.54190       -3.54000       -2.76550
H         -0.87820       -2.24270       -1.59890
C          1.45790        1.79060       -0.60480
H          1.16670        2.80290       -0.95410
H          2.36230        1.87630        0.03090
H          0.64550        1.40100        0.04930
F          0.16640       -1.62240        0.64220
F          2.18660       -2.61960        0.61870
H          1.93280       -0.61270        0.67310
H         -0.81520        1.10600       -3.64350
H          0.00130        0.66820       -5.06730
