22
TSA8_9_NH2_OMe_NO2
C          3.24150       -0.76000       -0.67290
C          2.18780       -1.60310        0.00860
N          2.77370        0.61840       -0.85890
H          4.12930       -0.73580       -0.00120
O          2.47520       -2.16540        1.21010
C          3.70300       -1.40760       -2.00700
C          2.61480       -1.41170       -3.06300
C          2.10770       -2.54430       -3.55860
O          1.10340       -1.79200       -0.52670
N          4.87540       -0.73000       -2.52520
H          3.99200       -2.45780       -1.76910
H          2.23340       -0.46640       -3.43640
H          2.45460       -3.51410       -3.21700
H          1.33080       -2.50170       -4.31510
H          1.88280        0.63600       -1.40590
H          2.58200        1.04700        0.07590
C          1.66090       -3.07490        1.84890
H          2.11970       -3.35260        2.82000
H          1.56140       -3.99110        1.22800
H          0.65830       -2.63510        2.03560
O          4.82490        0.41890       -2.85130
O          6.01190       -1.38430       -2.64460
