20
TSA8_9_NH2_NH2_NO2
C          2.95620       -1.39900        0.26870
C          1.60400       -1.37870        0.96200
N          3.03440       -0.32790       -0.73000
H          3.74270       -1.20800        1.03290
N          1.51730       -1.15330        2.29460
C          3.27070       -2.79060       -0.34830
C          2.32020       -3.16940       -1.46650
C          1.52660       -4.24210       -1.39220
O          0.58230       -1.56040        0.31590
N          4.63510       -2.82980       -0.84470
H          3.18290       -3.53470        0.47740
H          2.28310       -2.55880       -2.36350
H          1.52920       -4.88620       -0.51860
H          0.86320       -4.48170       -2.21700
H          2.93040        0.59680       -0.25150
H          2.26080       -0.41560       -1.42790
H          0.59920       -1.13720        2.76310
H          2.36210       -0.99320        2.86250
O          4.98100       -2.11740       -1.73910
O          5.50070       -3.66760       -0.31510
