20
TSA8_9_NH2_NH2_NO2
C          3.03250       -1.42130        0.03590
C          1.63260       -1.56190        0.72440
N          2.92230       -0.64160       -1.20160
H          3.73410       -0.87520        0.70650
N          1.70950       -1.15330        2.12240
C          3.60620       -2.83370       -0.22790
C          2.61470       -3.66830       -1.05980
C          1.16040       -3.35550       -0.66610
O          1.10320       -2.88630        0.66270
N          4.92640       -2.84100       -0.83890
H          3.68860       -3.32310        0.76860
H          2.71780       -3.52410       -2.15750
H          0.54620       -4.27300       -0.77960
H          0.70250       -2.60670       -1.35190
H          2.57900        0.31930       -0.97290
H          2.25590       -1.07400       -1.87820
H          0.76670       -1.27870        2.55530
H          1.92820       -0.13180        2.15410
O          5.47880       -1.82430       -1.13430
O          5.53980       -3.98720       -1.04110
