21
TSA8_9_I_CF3_OMe
C          2.96550        2.15690       -0.26340
C          1.59410        2.01990       -0.88460
I          3.16760        0.73290        1.33390
H          3.72890        1.83140       -1.00380
C          1.44370        1.55010       -2.30690
C          3.30180        3.62840        0.10400
C          2.31900        4.27090        1.07330
C          2.19700        3.91330        2.35450
O          0.59680        2.27910       -0.22680
O          3.31470        4.36270       -1.11140
H          4.31840        3.61670        0.56150
H          1.69870        5.08830        0.71690
H          1.48300        4.42670        2.99070
H          2.80490        3.13490        2.79370
F          0.10670        1.49910       -2.66380
F          2.09980        2.42250       -3.15540
F          1.99070        0.28770       -2.43860
C          4.04600        5.56610       -0.97790
H          5.03400        5.42010       -0.48780
H          3.44430        6.33430       -0.44760
H          4.26280        5.95400       -1.99430
