21
TSA8_9_I_CF3_OMe
C          1.74120        0.13560       -0.01370
C          1.46870        1.28660       -0.67620
I          2.15030       -0.08240        2.06070
H          1.71700       -0.81270       -0.53920
C          1.11000        1.26750       -2.14290
C          3.87170        4.98830        0.96910
C          2.94840        4.29200        0.28280
C          2.39850        3.00240        0.81500
O          1.47100        2.51180       -0.08350
O          4.40750        6.15920        0.52630
H          4.21630        4.60530        1.92500
H          2.58540        4.64970       -0.67580
H          1.90190        3.18660        1.79150
H          3.24860        2.30020        0.94550
F         -0.14930        1.81270       -2.30850
F          2.02450        2.03720       -2.83780
F          1.11260       -0.01030       -2.67590
C          4.10290        6.78760       -0.66480
H          4.70050        7.71810       -0.74840
H          3.02470        7.05450       -0.69410
H          4.35450        6.12700       -1.52230
