23
TSA8_9_Me_NO2_OMe
C          2.77700       -0.45490       -1.37680
C          1.28510       -0.93930       -1.35890
C          2.83420        0.96740       -0.79720
H          3.38810       -1.09320       -0.69940
N          1.15590       -2.17340       -0.60720
C          3.32320       -0.61440       -2.82150
C          2.43680        0.07830       -3.88070
C          0.96580        0.05310       -3.43600
O          0.71340       -1.09790       -2.66050
O          4.72460       -0.45110       -2.99930
H          3.16160       -1.69640       -3.02700
H          2.69430        1.12530       -4.13640
H          0.31080        0.06470       -4.33140
H          0.69760        0.96770       -2.86030
H          2.28870        1.69660       -1.42860
H          3.87580        1.31280       -0.66740
H          2.37660        0.97320        0.21550
O          0.71340       -3.15690       -1.11910
O          1.49260       -2.20230        0.66460
C          5.18840        0.87850       -2.89060
H          5.87170        1.08210       -3.74010
H          5.76690        0.98480       -1.94960
H          4.40310        1.65890       -2.92210
