22
TSA8_9_CH2F_CBr3_NH2
C          1.97340       -0.10900        0.04140
C          1.54800       -0.94800        1.03530
C          1.82700       -0.19810       -1.45510
H          2.49840        0.79480        0.31630
C          1.80470       -0.60680        2.50070
C          2.02670       -4.83450       -0.86480
C          1.83210       -3.50840       -0.80740
C          0.57300       -2.91580       -0.22170
O          0.86570       -2.12670        0.87120
N          3.21530       -5.37290       -1.41930
H          1.27100       -5.51740       -0.48810
H          2.60240       -2.84880       -1.19150
H         -0.08980       -3.73440        0.13170
H         -0.03320       -2.36100       -0.95990
F          3.08410       -0.17690       -2.02990
H          1.26920        0.69730       -1.80190
H          1.29550       -1.06350       -1.85100
Br         2.79340        1.03140        2.89330
Br         0.10210       -0.46190        3.41530
Br         2.79920       -2.06070        3.31040
H          3.95780       -4.76020       -1.78840
H          3.34330       -6.39370       -1.45890
