22
TSA8_9_CH2F_CBr3_NH2
C          2.48360       -1.85170        0.00050
C          1.22470       -1.49770        0.87150
C          2.45610       -1.00540       -1.28730
H          3.41590       -1.57840        0.54070
C          1.55980       -0.93780        2.26690
C          2.49320       -3.38160       -0.24260
C          1.16760       -3.85690       -0.86750
C         -0.01540       -3.05900       -0.29570
O          0.30310       -2.58060        0.99330
N          3.65210       -3.84370       -1.00540
H          2.55200       -3.84220        0.76930
H          1.13560       -3.77960       -1.97600
H         -0.91500       -3.70660       -0.25940
H         -0.28810       -2.20770       -0.96230
F          3.61110       -1.18390       -2.02630
H          2.39880        0.07060       -1.01840
H          1.57930       -1.24590       -1.92130
Br         2.63760        0.67210        2.13900
Br        -0.07850       -0.45640        3.18530
Br         2.49970       -2.24660        3.35210
H          3.56170       -3.56870       -2.00840
H          3.68420       -4.88830       -0.97050
