19
TSA8_9_NO2_F_CHF2
C          2.68680        1.41380       -0.69330
C          1.88560        1.16340       -1.94830
N          1.97030        0.86560        0.44610
H          3.66260        0.88330       -0.78820
F          2.40540        0.40400       -2.94680
C          2.96870        2.93090       -0.49180
C          3.60820        3.17040        0.85930
C          3.02100        3.93440        1.78690
O          0.76800        1.63980       -2.07730
C          3.89780        3.50600       -1.58180
H          2.00080        3.48010       -0.53530
H          4.56580        2.71030        1.08590
H          2.06300        4.41150        1.59930
H          3.49890        4.08900        2.74820
O          2.45830       -0.00810        1.09620
O          0.78870        1.33710        0.78380
F          5.12270        2.85870       -1.57510
F          3.33170        3.38810       -2.83790
H          4.07070        4.58640       -1.38830
