19
TSA8_9_NO2_F_CHF2
C          1.74180       -0.00640       -0.01000
C          1.62860        1.03540       -0.85730
N          1.44720        0.04120        1.38420
H          2.06600       -0.95550       -0.42960
F          1.88930        0.82480       -2.17440
C          3.71130        4.64690       -0.99290
C          3.36700        3.41750       -0.58620
C          2.11460        3.15290        0.20750
O          1.27210        2.28750       -0.47190
C          4.97540        4.87620       -1.76620
H          3.07790        5.49880       -0.76210
H          4.01170        2.57470       -0.82180
H          1.56080        4.09630        0.40350
H          2.42000        2.72860        1.18320
O          1.62600       -0.93310        2.04870
O          0.85990        1.08510        1.92930
F          6.06600        4.48120       -1.01230
F          4.94600        4.15490       -2.94600
H          5.07570        5.95520       -2.00500
