24
TSA8_9_CCl3_OMe_Me
C          2.15090       -1.55180        1.67150
C          0.77040       -1.51910        2.33680
C          1.99860       -1.28720        0.13360
H          2.77040       -0.72370        2.07180
O          0.42800       -0.60710        3.28690
C          2.86860       -2.89590        2.04330
C          4.27550       -2.96380        1.49650
C          4.66480       -3.92520        0.65350
O         -0.06250       -2.35420        2.01920
C          2.96960       -3.07450        3.56900
H          2.26770       -3.74510        1.64800
H          4.99590       -2.21000        1.80340
H          3.97780       -4.69770        0.32460
H          5.68590       -3.94000        0.28570
Cl         1.15570       -2.61960       -0.71120
Cl         1.06850        0.21500       -0.14580
Cl         3.56440       -1.02570       -0.68500
C          1.24910        0.37130        3.80510
H          0.68560        0.95190        4.56370
H          1.57750        1.06570        3.00320
H          2.12960       -0.09030        4.30040
H          1.96500       -3.10160        4.03980
H          3.55380       -2.24540        4.02350
H          3.47140       -4.03680        3.80780
