24
TSA8_9_CCl3_OMe_Me
C          2.29600       -2.04670        1.07790
C          2.29860       -1.09250        2.31980
C          0.85980       -2.31450        0.52950
H          2.85120       -1.55720        0.24500
O          1.91310        0.21740        1.99440
C          3.15370       -3.29670        1.44440
C          4.58470       -2.82030        1.81180
C          4.61860       -1.36140        2.29370
O          3.49580       -1.08560        3.09970
C          2.56370       -4.14170        2.59130
H          3.25850       -3.97770        0.57380
H          5.06600       -3.52530        2.52470
H          4.64090       -0.66520        1.42410
H          5.55710       -1.17000        2.85460
Cl        -0.29250       -2.86500        1.77910
Cl         0.17760       -0.82430       -0.17850
Cl         0.89590       -3.52080       -0.78650
C          0.96270        0.61830        2.94990
H          0.54420        1.59690        2.63980
H          1.43930        0.75780        3.94620
H          0.10500       -0.09120        3.00850
H          2.42550       -3.54280        3.51510
H          3.24090       -4.99110        2.82290
H          1.60050       -4.59540        2.29230
