21
TSA8_9_F_Et_OH
C          3.14000       -0.58490        2.29210
C          1.60510       -0.46270        2.01720
F          3.79110       -0.98160        1.13500
H          3.56840        0.39880        2.58390
C          0.98360        0.64170        2.88770
C          3.35760       -1.63590        3.38290
C          2.79600       -2.99360        2.91600
C          1.64850       -2.81030        1.90760
O          0.87720       -1.67720        2.23800
O          4.71900       -1.74510        3.70310
H          2.78650       -1.29080        4.27600
H          3.56390       -3.62890        2.42220
H          1.01340       -3.71980        1.90320
H          2.03710       -2.70450        0.86850
C         -0.49550        0.84220        2.56750
H          1.51120        1.60010        2.69020
H          1.09220        0.39130        3.96470
H         -0.62500        1.10810        1.49690
H         -0.90200        1.66530        3.19230
H         -1.07280       -0.08080        2.78760
H          4.76660       -2.21980        4.57430
