21
TSA8_9_OMe_CN_NH2
C          1.64150       -1.13830       -1.18550
C          2.52140       -1.72920       -0.11280
O          2.30980       -0.03730       -1.78490
H          0.69180       -0.85600       -0.66480
C          2.01250       -1.85780        1.23290
C          1.29030       -2.19820       -2.25590
C          0.05840       -1.77560       -3.02190
C         -1.15540       -2.17170       -2.61930
O          3.62450       -2.17610       -0.38520
N          2.41560       -2.44760       -3.16400
H          1.04600       -3.14720       -1.72500
H          0.14570       -1.11890       -3.88200
H         -1.27210       -2.80360       -1.74140
H         -2.04460       -1.85460       -3.15110
C          1.53260        1.13870       -1.76250
H          1.85610        1.77650       -2.61100
H          1.71310        1.69350       -0.81780
H          0.44720        0.95360       -1.92220
N          1.59580       -1.95310        2.30970
H          2.62220       -1.58520       -3.72250
H          2.15920       -3.20260       -3.84040
