21
TSA8_9_OMe_CN_NH2
C          1.61420       -0.07270        0.05230
C          1.54120       -1.39490        0.34370
O          1.69930        0.38510       -1.22710
H          1.53020        0.65290        0.85710
C          1.23710       -1.81850        1.68890
C          1.02930       -3.18210       -3.88780
C          1.18410       -2.25890       -2.93710
C          0.53890       -2.39360       -1.60360
O          1.50750       -2.35310       -0.61600
N          1.67220       -3.03120       -5.13770
H          0.41020       -4.05740       -3.70890
H          1.78980       -1.37900       -3.12580
H         -0.04490       -3.33520       -1.50590
H         -0.18750       -1.57580       -1.50020
C          1.19150        1.62260       -1.60280
H          1.50010        1.86920       -2.63880
H          1.53500        2.42730       -0.92010
H          0.07770        1.61140       -1.60140
N          0.99410       -2.19230        2.75640
H          2.28000       -2.21980       -5.32540
H          1.55930       -3.75500       -5.85940
