21
TSA8_9_OMe_CN_NH2
C          1.63540       -1.11560       -1.47220
C          1.68160       -2.01070       -0.20280
O          2.59510       -0.06840       -1.56810
H          0.62980       -0.67710       -1.38720
C          1.57890       -1.29270        1.07040
C          1.67190       -2.18410       -2.59450
C          0.22770       -2.69260       -2.65690
C         -0.29470       -2.92230       -1.19810
O          0.77380       -3.13340       -0.26830
N          2.22160       -1.78930       -3.89130
H          2.30480       -3.05240       -2.28300
H         -0.41100       -1.88750       -3.11290
H         -0.98960       -3.77690       -1.20000
H         -0.90600       -2.05920       -0.83690
C          1.94470        1.19580       -1.83160
H          2.20070        1.58150       -2.83920
H          2.20490        1.92790       -1.04170
H          0.82520        1.22020       -1.83080
N          1.51810       -0.71220        2.07150
H          1.69230       -1.02300       -4.35040
H          2.22360       -2.64120       -4.50960
