17
TSA8_9_CHF2_Br_F
C          1.81800       -0.01760       -0.00100
C          1.08410        0.22680        1.09870
C          2.25540       -1.38230       -0.47390
H          2.12440        0.82640       -0.61200
Br         0.63750        2.05840        1.49470
C         -0.03310       -2.18160        4.92520
C         -0.37150       -1.95250        3.65240
C         -0.14710       -0.62040        2.99940
O          0.67090       -0.78660        1.90280
F         -0.25480       -3.40300        5.47740
H          0.41780       -1.40380        5.53350
H         -0.82330       -2.75100        3.07010
H          0.32030        0.09490        3.71220
H         -1.12890       -0.21480        2.67300
F          3.63530       -1.41840       -0.53730
F          1.81890       -2.40780        0.34550
H          1.84690       -1.55150       -1.49190
