17
TSA8_9_CHF2_Br_F
C          1.75090       -0.88150        1.65830
C          0.97720        0.41890        1.36640
C          1.62310       -1.83890        0.45600
H          2.83280       -0.65260        1.77440
Br         1.47240        1.92310        2.50860
C          1.21510       -1.47820        2.97680
C         -0.30470       -1.63080        2.91150
C         -0.92410       -0.27690        2.54140
O         -0.42750        0.20930        1.30240
F          1.81150       -2.69340        3.26350
H          1.45110       -0.77940        3.80890
H         -0.59240       -2.39520        2.16000
H         -0.76730        0.46480        3.35420
H         -2.02200       -0.41190        2.45260
F          2.14410       -1.23480       -0.67490
F          2.32920       -3.00510        0.69100
H          0.56530       -2.09850        0.24840
