17
TSA8_9_Br_Cl_Me
C          2.21050        0.80100       -2.40880
C          1.08560        1.16010       -1.39200
Br         3.90750        0.53600       -1.47800
H          1.98840       -0.18050       -2.88190
Cl        -0.44700        0.40970       -1.91530
C          2.28260        1.91730       -3.46270
C          2.58550        3.26650       -2.78150
C          2.01940        3.31360       -1.35040
O          0.83110        2.56080       -1.25510
C          3.26820        1.62560       -4.59770
H          1.26760        1.99230       -3.91350
H          3.67190        3.49440       -2.71080
H          1.82760        4.36970       -1.07070
H          2.75590        2.93630       -0.60710
H          2.99620        0.67350       -5.10100
H          4.30680        1.54420       -4.21400
H          3.23150        2.44260       -5.34960
