18
TSA8_9_NH2_I_NH2
C          1.56350       -0.26950        2.25030
C          1.09870        0.64670        1.13950
N          1.47660       -1.67100        1.82980
H          2.63350       -0.04340        2.45590
I          2.41720        2.06500        0.30210
C          0.79490       -0.01710        3.57440
C         -0.70250       -0.21440        3.43840
C         -1.56430        0.78650        3.64850
O         -0.03950        0.57220        0.70290
N          1.31790       -0.88440        4.63260
H          1.00170        1.03760        3.86820
H         -1.09170       -1.19050        3.16620
H         -1.21830        1.77840        3.92360
H         -2.63070        0.61710        3.54400
H          2.09410       -1.82250        0.99930
H          0.49770       -1.92090        1.56390
H          1.10570       -1.88690        4.41950
H          0.85680       -0.64100        5.53970
