16
TSA8_9_I_NO2_F
C          1.88080        0.20040       -0.22330
C          1.42900        1.06320       -1.17440
I          2.67580        0.54390        1.71920
H          1.83350       -0.86520       -0.42030
N          0.89970        0.53240       -2.39200
C          4.28570        4.25910       -0.87450
C          3.58810        3.19500       -0.46440
C          2.10560        3.26690       -0.19810
O          1.42510        2.42700       -1.05570
F          5.61880        4.14690       -1.11000
H          3.80410        5.21990       -1.02800
H          4.10810        2.25290       -0.32850
H          1.74110        4.30010       -0.38250
H          1.86080        3.04490        0.85580
O          0.49400        1.27520       -3.23370
O          0.85620       -0.76570       -2.61130
