21
TSA8_9_OH_CHF2_CF3
C          2.17750        1.88620       -0.95580
C          1.01150        1.72660       -1.90500
O          1.86650        1.22060        0.24260
H          3.09610        1.43390       -1.40160
C          1.18330        1.01040       -3.21550
C          2.48420        3.37570       -0.64290
C          3.59140        3.44930        0.38800
C          3.40290        4.00500        1.58970
O         -0.08590        2.16480       -1.59110
C          2.90920        4.18270       -1.88950
H          1.56340        3.84530       -0.22810
H          4.56770        3.03760        0.14820
H          2.44270        4.42700        1.87050
H          4.21750        4.03950        2.30510
H          2.08400        0.26130        0.10540
F         -0.01560        0.96330       -3.90620
F          2.12480        1.65950       -3.99050
H          1.52500       -0.02820       -3.02290
F          4.03790        3.62720       -2.46890
F          1.89260        4.21610       -2.82580
F          3.19370        5.48760       -1.52440
