21
TSA8_9_OH_CHF2_CF3
C          2.04280        0.23690       -0.33380
C          1.43530        1.27910       -0.94180
O          2.38290        0.26930        0.96970
H          2.24640       -0.67250       -0.89380
C          1.02680        1.16610       -2.38460
C          2.74010        4.66310       -1.35240
C          3.06910        3.81940       -0.36170
C          2.00160        3.19140        0.49140
O          1.14240        2.44610       -0.29900
C          3.78000        5.30510       -2.22140
H          1.69340        4.89310       -1.53590
H          4.11210        3.58570       -0.16550
H          1.42350        4.00480        0.97840
H          2.45570        2.58570        1.29790
H          2.79370       -0.49690        1.39230
F         -0.33710        1.35500       -2.49640
F          1.67880        2.13930       -3.11890
H          1.28370        0.17410       -2.81470
F          4.49870        4.33220       -2.89110
F          3.16510        6.12820       -3.14720
F          4.63940        6.06150       -1.44650
