23
TSA8_9_Et_H_CCl3
C          1.38060       -1.62350        0.56060
C          0.04570       -0.90950        0.60090
C          1.90460       -1.50350       -0.89610
H          2.08220       -1.05810        1.21610
H         -0.78860       -1.28300        0.01440
C          1.14740       -3.07160        1.14160
C          0.70890       -2.90360        2.59040
C         -0.50410       -3.27190        3.01570
O         -0.10420        0.08840        1.28820
C          2.32260       -4.09480        1.09360
H          0.31970       -3.54230        0.56210
H          1.40190       -2.46750        3.30440
H         -0.77740       -3.13350        4.05650
H         -1.22890       -3.71010        2.33700
C          3.43390       -1.52070       -1.02520
H          1.63930       -0.49260       -1.28310
H          1.40640       -2.24460       -1.55670
H          3.87000       -0.69080       -0.42890
H          3.71210       -1.36450       -2.08870
H          3.90910       -2.45160       -0.69210
Cl         3.81140       -3.45240        1.84650
Cl         1.88430       -5.59060        1.97640
Cl         2.64670       -4.66250       -0.56950
