23
TSA8_9_Et_H_CCl3
C          1.84450       -2.06510        0.80630
C          0.90380       -0.88980        1.14930
C          2.29800       -1.94930       -0.66560
H          2.74780       -1.97220        1.44930
H         -0.00530       -0.85500        0.50550
C          1.09800       -3.39610        1.16640
C          0.65230       -3.28220        2.63940
C         -0.18540       -2.01800        2.84030
O          0.56980       -0.86680        2.52330
C          1.88910       -4.72700        0.96040
H          0.17320       -3.46770        0.55030
H          1.53520       -3.24490        3.31450
H         -0.48360       -1.96240        3.90820
H         -1.12650       -2.05830        2.24590
C          3.01030       -0.62600       -0.95980
H          1.42140       -2.05050       -1.34240
H          3.03400       -2.74070       -0.89390
H          2.33600        0.23950       -0.79210
H          3.33640       -0.60940       -2.02100
H          3.90680       -0.52150       -0.31190
Cl         3.48030       -4.69500        1.77300
Cl         0.96320       -6.10650        1.62490
Cl         2.12830       -5.13100       -0.76230
