19
TSA8_9_Br_CBr3_NH2
C          2.16550       -0.69080       -2.08890
C          1.01110       -1.66880       -2.13850
Br         1.63240        0.79090       -0.93990
H          3.04940       -1.17620       -1.62030
C          1.13510       -3.06460       -1.56140
C          2.55650       -0.17080       -3.49500
C          3.69700        0.81460       -3.37610
C          3.57610        2.08730       -3.76740
O         -0.04760       -1.30650       -2.63220
N          2.97890       -1.27180       -4.36320
H          1.67010        0.32770       -3.95140
H          4.64210        0.47960       -2.95830
H          2.64700        2.46130       -4.18630
H          4.41430        2.76860       -3.66430
Br         1.54620       -2.96030        0.33050
Br        -0.51590       -4.07600       -1.74890
Br         2.54120       -4.06320       -2.44700
H          3.26230       -0.88580       -5.29370
H          2.16870       -1.90780       -4.54030
