17
TSA8_9_Me_I_Br
C          1.57160       -0.96450        1.34880
C          0.96530        0.40140        1.12710
C          1.37180       -1.83320        0.09530
H          2.66620       -0.82820        1.48830
I          2.18950        2.12170        1.14900
C          1.02580       -1.61410        2.64800
C         -0.45750       -1.89760        2.59860
C         -1.31440       -1.32580        3.45000
O         -0.23220        0.53190        0.92390
Br         1.95720       -3.27320        3.04730
H          1.25410       -0.92220        3.48960
H         -0.84340       -2.58890        1.85600
H         -0.97330       -0.63000        4.21040
H         -2.37340       -1.55370        3.38780
H          0.29450       -1.99300       -0.11980
H          1.86340       -2.82030        0.21600
H          1.82970       -1.33290       -0.78470
