26
TSA8_9_CF3_CH2F_Et
C          2.94300        0.87500       -1.87790
C          1.41840        0.61220       -1.89800
C          3.44480        0.99400       -0.41600
H          3.45250       -0.03790       -2.24300
C          0.90000       -0.06430       -3.17250
C          3.32650        2.11440       -2.75450
C          2.09870        3.00860       -3.03580
C          1.11720        3.00900       -1.86330
O          0.61110        1.72240       -1.50560
C          3.96710        1.74670       -4.11750
H          4.07430        2.72520       -2.20110
H          1.53400        2.65880       -3.92250
H          0.25730        3.64640       -2.15740
H          1.57880        3.49710       -0.98480
F          4.82410        1.11790       -0.40670
F          2.90680        2.07610        0.25030
F          3.11240       -0.15480        0.28150
F         -0.42650       -0.41230       -3.00270
H          1.48380       -0.98990       -3.36020
H          0.98570        0.57930       -4.06490
C          5.30380        1.00950       -4.00310
H          4.16440        2.68860       -4.67540
H          3.26520        1.13000       -4.71900
H          6.03100        1.61720       -3.42560
H          5.71240        0.84160       -5.02240
H          5.19570        0.01720       -3.52450
