15
TSA8_9_Cl_I_OH
C          2.95480        1.32870        0.86240
C          1.46870        1.57650        0.86610
Cl         3.28770       -0.25940        0.10850
H          3.40720        2.10410        0.20740
I          0.67490        3.24310       -0.16020
C          3.66520        1.45690        2.23590
C          3.26340        0.42800        3.27410
C          2.08370        0.43630        3.90100
O          0.69790        0.79390        1.39660
O          5.04620        1.33230        2.00470
H          3.46300        2.47830        2.63860
H          3.98670       -0.33020        3.56210
H          1.33800        1.19560        3.69890
H          1.86630       -0.31640        4.65190
H          5.51050        1.80550        2.74450
