16
TSA8_9_F_F_NO2
C          1.11820       -1.02520        2.07710
C          1.05090        0.34810        1.39500
F          0.27550       -1.89220        1.40050
H          2.15290       -1.42630        2.02160
F          2.00450        1.22690        1.88770
C          0.67980       -0.87920        3.54510
C         -0.69350       -0.19870        3.59650
C         -0.62190        1.12330        2.82100
O         -0.25270        0.90530        1.46800
N          0.64750       -2.16330        4.22070
H          1.40990       -0.21620        4.06350
H         -1.46710       -0.84920        3.13230
H          0.07290        1.83980        3.31390
H         -1.62660        1.59420        2.84170
O         -0.08190       -3.03190        3.84640
O          1.42010       -2.37420        5.26510
