19
TSA8_9_I_OMe_OH
C          3.44700       -0.10120        1.26320
C          2.33950        0.67650        1.92570
I          2.75800       -0.86020       -0.62660
H          4.25440        0.62910        1.03450
O          2.53170        1.99500        2.18730
C          4.10420       -1.21030        2.12580
C          3.21170       -2.38720        2.46560
C          2.20500       -2.32390        3.34150
O          1.26500        0.14610        2.16860
O          5.21090       -1.69380        1.40730
H          4.46940       -0.74410        3.07250
H          3.42700       -3.34990        2.00940
H          1.96820       -1.41010        3.87190
H          1.61940       -3.21270        3.55400
C          1.58710        2.81110        2.77200
H          2.00010        3.83670        2.86440
H          1.33210        2.43550        3.78620
H          0.67190        2.84960        2.14360
H          5.86580       -2.03510        2.07180
