19
TSA8_9_I_OMe_OH
C          3.31400       -0.12050        1.23320
C          1.84210        0.12110        1.66450
I          3.29880       -1.43220       -0.46810
H          3.79050        0.82700        0.90110
O          1.37950        1.43880        1.43890
C          4.08890       -0.69470        2.43230
C          3.38070       -1.91940        3.04320
C          1.84980       -1.75770        2.97850
O          1.49510       -0.39000        2.94850
O          5.43870       -0.94960        2.14000
H          4.06560        0.09080        3.21890
H          3.64660       -2.88400        2.55940
H          1.38740       -2.26070        3.85220
H          1.44020       -2.27690        2.07900
C          1.79790        2.29510        2.47990
H          1.64340        3.34330        2.15190
H          2.88230        2.19530        2.70660
H          1.18160        2.13400        3.39030
H          5.47390       -1.73600        1.53670
