14
TSA8_9_Cl_Br_F
C          1.60200        0.66210       -0.05510
C          2.34660        1.31140       -0.97260
Cl         2.32080       -0.23430        1.27930
H          0.52190        0.65810       -0.11230
Br         4.26090        1.28790       -0.86900
C         -0.28310        4.65740       -1.59180
C          0.10330        3.43900       -1.19640
C          0.47800        2.36560       -2.18670
O          1.80020        1.99690       -2.01570
F         -0.60510        5.60230       -0.67050
H         -0.34260        4.91160       -2.64600
H          0.15380        3.22150       -0.13420
H          0.36260        2.75060       -3.22260
H         -0.19440        1.48780       -2.09070
