18
TSA8_9_H_OMe_Br
C          1.66030       -0.00300        0.21530
C          1.72370        1.31560       -0.01210
H          1.53440       -0.40770        1.21150
H          1.71870       -0.70130       -0.61420
O          1.84380        1.74510       -1.29110
C          3.93190        0.57960        2.98910
C          2.74430        1.18340        2.86970
C          2.56710        2.40180        2.00960
O          1.63360        2.21930        1.00320
Br         4.12970       -0.97110        4.08600
H          4.80400        0.95770        2.46290
H          1.88520        0.78910        3.40420
H          3.53040        2.71680        1.54690
H          2.22060        3.23210        2.65860
C          2.12550        3.05160       -1.62350
H          2.11260        3.15700       -2.72740
H          3.13830        3.31970       -1.25240
H          1.37150        3.73970       -1.18520
