18
TSA8_9_H_OMe_Br
C          2.45470        0.33460        0.74880
C          2.23260        1.78010        0.28560
H          1.46910       -0.13590        0.96060
H          2.97360       -0.25220       -0.03910
O          1.49090        1.79920       -0.90440
C          3.31010        0.37010        2.01890
C          2.65920        1.29450        3.05080
C          2.40680        2.66110        2.39760
O          1.55060        2.51730        1.28060
Br         3.53400       -1.41100        2.75020
H          4.31590        0.77350        1.76790
H          1.68650        0.86810        3.38170
H          3.36260        3.15650        2.10960
H          1.91320        3.32200        3.14020
C          2.14180        2.68270       -1.78180
H          1.61020        2.66380       -2.75520
H          3.19190        2.36680       -1.97910
H          2.09540        3.72800       -1.40070
