17
TSA8_9_CF3_F_Cl
C          1.62980       -0.94120        1.60070
C          0.82880        0.37220        1.50700
C          1.42230       -1.77260        0.30840
H          2.71440       -0.69800        1.64310
F          1.22510        1.29670        2.46340
C          1.23390       -1.63800        2.92860
C         -0.28440       -1.78490        3.03820
C         -0.93270       -0.41070        2.81930
O         -0.57200        0.14150        1.56200
Cl         2.04320       -3.20890        3.18440
H          1.55650       -0.98160        3.76680
H         -0.67050       -2.51340        2.29750
H         -0.67350        0.28610        3.64760
H         -2.03500       -0.53570        2.84990
F          2.18120       -2.92750        0.34230
F          0.09780       -2.11450        0.11020
F          1.83940       -1.02570       -0.77970
