23
TSA8_9_F_CHF2_Et
C          3.29250        1.25620       -1.04200
C          1.81080        0.98210       -1.15480
F          3.81650        0.44070       -0.05370
H          3.77080        0.98840       -2.00970
C          1.23250        0.47170       -2.44470
C          3.58770        2.75070       -0.75600
C          3.06200        3.17050        0.60220
C          2.12520        4.11430        0.73850
O          1.08000        1.16130       -0.19150
C          5.09050        3.10390       -0.89380
H          3.07390        3.33810       -1.55160
H          3.45070        2.69250        1.49590
H          1.70450        4.61940       -0.12540
H          1.77170        4.38750        1.72740
F         -0.13220        0.27360       -2.32590
F          1.46880        1.38690       -3.45390
H          1.71280       -0.49380       -2.70780
C          6.03450        2.41130        0.09460
H          5.20260        4.20260       -0.76110
H          5.42490        2.85680       -1.92500
H          5.76780        2.65780        1.14240
H          7.07130        2.76470       -0.08740
H          6.02960        1.31260       -0.04520
