23
TSA8_9_F_CHF2_Et
C          2.01790        0.11380       -0.27130
C          1.49530        1.04670       -1.09860
F          2.46160        0.39770        0.97910
H          2.09000       -0.92040       -0.59410
C          1.01570        0.63740       -2.46450
C          4.02030        3.62540       -0.81310
C          3.39420        3.07440        0.24320
C          1.89120        3.04420        0.31320
O          1.36600        2.36740       -0.77390
C          5.52030        3.70250       -0.99790
H          3.41580        4.05160       -1.60960
H          3.94940        2.63780        1.06550
H          1.51820        4.08990        0.29180
H          1.53940        2.58800        1.26210
F         -0.32610        0.94230       -2.59230
F          1.73010        1.33210       -3.42290
H          1.14970       -0.45040       -2.64690
C          6.35340        3.08270        0.12450
H          5.80230        4.77220       -1.09710
H          5.77520        3.18430       -1.94700
H          6.15510        3.60080        1.08670
H          7.43230        3.18980       -0.11540
H          6.12300        2.00050        0.22490
