14
TSA8_9_F_Br_H
C          1.41880       -1.60590       -1.28960
C          0.92860       -1.40830        0.15190
F          0.90090       -0.59360       -2.08030
H          2.52680       -1.54540       -1.33230
Br         1.86690       -2.49750        1.47180
C          0.93520       -2.96050       -1.80980
C         -0.58070       -3.04620       -1.64190
C         -0.93580       -2.78530       -0.17230
O         -0.48460       -1.50850        0.25640
H          1.21470       -3.09080       -2.87680
H          1.40980       -3.77860       -1.22560
H         -1.07760       -2.28470       -2.28220
H         -0.53870       -3.59160        0.48180
H         -2.04070       -2.81820       -0.07380
