16
TSA8_9_I_CN_CN
C          2.75750        1.60960       -0.18970
C          1.34760        1.44730       -0.83540
I          2.66930        0.45860        1.63070
H          3.55640        1.16070       -0.81910
C          1.34550        0.72020       -2.11340
C          3.00920        3.12340        0.02490
C          1.87200        3.70420        0.86310
C          0.51240        3.26600        0.29430
O          0.65790        2.68130       -0.98700
C          4.30170        3.52610        0.59500
H          2.97700        3.59820       -0.98010
H          1.94250        3.37320        1.92590
H         -0.12150        4.17310        0.22500
H         -0.00760        2.55980        0.98190
N          1.36300        0.17380       -3.13380
N          5.29780        3.91790        1.03630
