22
TSA8_9_NO2_CF3_Me
C          2.16060       -0.22790       -0.16460
C          1.64820       -1.26110        0.58490
N          1.90560        0.15250       -1.52040
H          2.86990        0.42430        0.33570
C          2.08730       -1.39610        2.03190
C          2.09500       -4.27990       -1.42380
C          1.30590       -3.28250       -1.84810
C          0.23250       -2.71540       -0.95860
O          0.76230       -2.24270        0.22410
C          3.15470       -4.86040       -2.30730
H          1.96880       -4.68510       -0.42310
H          1.43020       -2.88600       -2.85160
H         -0.46250       -3.54410       -0.70700
H         -0.40400       -1.95720       -1.44620
O          2.49190        1.09290       -1.96400
O          1.00090       -0.42040       -2.26950
F          0.97240       -1.33090        2.84700
F          2.69030       -2.62890        2.20130
F          2.97970       -0.41760        2.43880
H          3.88710       -4.07470       -2.58830
H          2.69300       -5.28130       -3.22550
H          3.68640       -5.67280       -1.76900
