23
TSA8_9_CF3_CHF2_CBr3
C          2.62790        0.02300       -1.71080
C          1.36140       -0.62900       -2.24380
C          2.29640        0.80130       -0.41490
H          3.32020       -0.78420       -1.39150
C          1.21010       -2.12730       -2.22780
C          3.39580        0.92200       -2.75080
C          2.54120        2.07930       -3.24140
C          2.84750        3.35370       -2.97770
O          0.43470        0.06210       -2.64010
C          4.00480        0.15880       -3.96680
H          4.27410        1.33090       -2.20230
H          1.65350        1.87930       -3.83190
H          2.21090        4.14980       -3.35030
H          3.72450        3.61320       -2.39380
F          3.45360        1.32080        0.13820
F          1.41140        1.83800       -0.65640
F          1.72500       -0.05620        0.50960
F         -0.02790       -2.49850       -2.72390
F          2.19700       -2.72100       -2.99050
H          1.29790       -2.49070       -1.18280
Br         5.11780        1.36750       -5.00960
Br         5.18220       -1.27820       -3.39310
Br         2.68790       -0.57650       -5.19720
