29
TSA8_9_Et_Et_CCl3
C          2.56580       -1.30190       -1.32900
C          1.36230       -2.12280       -0.89820
C          2.22160        0.19770       -1.13060
H          3.39580       -1.52540       -0.62450
C          1.47550       -3.04780        0.29210
C          3.06870       -1.63260       -2.78280
C          2.01360       -1.30880       -3.82820
C          2.19130       -0.35580       -4.74770
O          0.29920       -2.00930       -1.49290
C          3.59180       -3.08940       -2.97590
H          3.95840       -0.99190       -2.95860
H          1.08370       -1.86680       -3.84410
H          1.41400       -0.15870       -5.47860
H          3.10350        0.23240       -4.78150
C          3.41430        1.13780       -1.32250
H          1.86790        0.33810       -0.08460
H          1.39920        0.50460       -1.81230
H          4.23850        0.85860       -0.63190
H          3.10090        2.17820       -1.09470
H          3.78460        1.12290       -2.36620
C          0.17150       -3.78290        0.60400
H          1.76850       -2.45040        1.18160
H          2.26920       -3.79890        0.09380
H         -0.63530       -3.05500        0.83570
H          0.31710       -4.44270        1.48510
H         -0.13500       -4.40810       -0.26180
Cl         2.32030       -4.33870       -2.83780
Cl         4.31630       -3.25960       -4.60110
Cl         4.88350       -3.46920       -1.80210
