19
TSA8_9_OH_OH_CBr3
C          2.92910        0.94160       -1.43860
C          1.62720        0.72400       -2.17960
O          2.64690        1.15480       -0.07960
H          3.55140        0.02260       -1.51390
O          1.38230       -0.43970       -2.81860
C          3.78960        2.12620       -1.99640
C          3.04470        3.45590       -1.96400
C          2.61460        4.02810       -0.83390
O          0.77350        1.59720       -2.18810
C          4.37700        1.86340       -3.42230
H          4.67500        2.22310       -1.32900
H          2.86200        3.98820       -2.89310
H          2.09680        4.98080       -0.87640
H          2.77670        3.57480        0.13620
H          2.46310        0.26630        0.32540
H          2.02770       -1.16020       -2.83400
Br         5.59080        3.30370       -3.91300
Br         5.44820        0.24060       -3.47420
Br         3.04300        1.74540       -4.83610
