19
TSA8_9_OH_OH_CBr3
C          3.14400        0.74510       -1.41190
C          1.61790        0.83040       -1.62740
O          3.36710        0.65690       -0.02650
H          3.56560       -0.16870       -1.88630
O          1.26010        0.76080       -2.97450
C          3.86440        2.02260       -1.95030
C          2.86430        3.18960       -2.09790
C          1.81790        3.12980       -0.97700
O          1.00440        1.95560       -1.00440
C          4.70430        1.81190       -3.24300
H          4.60620        2.32070       -1.17540
H          2.31070        3.12900       -3.05900
H          1.15410        4.01140       -1.09350
H          2.31960        3.20970        0.01120
H          3.10940       -0.26130        0.25110
H          0.77940       -0.10060       -3.06110
Br         5.61730        3.45900       -3.72640
Br         6.09300        0.48410       -2.94880
Br         3.66290        1.24500       -4.78280
