20
TSA8_9_NH2_CBr3_CN
C          1.58120       -0.04590        0.08760
C          1.46430       -0.71850        1.31710
N          1.61580       -0.67560       -1.19180
H          1.52440        1.05020        0.02290
C          1.54650        0.01720        2.68840
C          1.88720       -5.03590        0.43250
C          1.78720       -3.78540       -0.01230
C          0.69250       -2.89980        0.47240
O          1.28290       -2.07540        1.41360
C          3.15940       -5.70190        0.29890
H          1.08340       -5.49290        1.00540
H          2.60270       -3.34110       -0.57130
H         -0.10940       -3.46450        0.97880
H          0.17210       -2.34570       -0.33840
H          2.57050       -0.44650       -1.47710
H          1.00780       -0.38700       -1.99710
Br         0.41310        1.56520        2.71130
Br         1.00460       -1.17380        4.13020
Br         3.32240        0.62950        3.29730
N          4.20060       -6.18670        0.15550
