17
TSA8_9_Br_CH2F_H
C          2.99180       -1.61660        0.41610
C          1.49660       -1.73770        0.58870
Br         3.41900        0.09630       -0.39990
H          3.44970       -1.61070        1.42950
C          0.91480       -1.90560        1.96390
C          3.67090       -2.77700       -0.34780
C          3.32840       -2.90800       -1.81280
C          2.15440       -3.36470       -2.25700
O          0.75200       -1.65770       -0.37570
H          4.76330       -2.57490       -0.29630
H          3.49250       -3.74580        0.16730
H          4.09170       -2.65690       -2.54380
H          1.37130       -3.67530       -1.57620
H          1.97910       -3.45320       -3.32430
F         -0.46640       -1.97670        1.91030
H          1.20630       -1.04160        2.59710
H          1.30610       -2.83870        2.42050
