21
TSA8_9_CN_CF3_CCl3
C          2.79340       -1.88450        0.30210
C          1.60820       -1.62700        1.26660
C          2.46690       -0.97010       -0.84280
H          3.72120       -1.49960        0.77240
C          1.72270       -0.74670        2.49250
C          2.86340       -3.45620       -0.11940
C          2.10930       -3.54320       -1.42300
C          0.80530       -3.71700       -1.48270
O          0.49670       -2.07110        1.00210
C          4.13060       -4.39920       -0.27650
H          2.32480       -3.94800        0.71750
H          2.64040       -3.27370       -2.33810
H          0.24110       -3.89820       -0.58130
H          0.32070       -3.60720       -2.44220
N          2.15380       -0.25610       -1.68320
F          0.46900       -0.51160        3.03910
F          2.52130       -1.33760        3.45090
F          2.26400        0.46760        2.12030
Cl         3.55080       -6.09960       -0.15740
Cl         5.00250       -4.33470       -1.84570
Cl         5.34820       -4.22200        1.00620
