21
TSA8_9_CN_CF3_CCl3
C          2.81080       -1.78900        0.01130
C          1.41420       -1.44100        0.63730
C          2.83570       -1.12170       -1.30500
H          3.63290       -1.35330        0.62200
C          1.52190       -0.96830        2.09230
C          2.88910       -3.34510       -0.05930
C          1.78000       -3.82230       -1.00660
C          0.46050       -3.10770       -0.70550
O          0.48020       -2.52380        0.58190
C          4.21080       -4.10740       -0.33680
H          2.63220       -3.68310        0.96880
H          2.04220       -3.64870       -2.07800
H         -0.32870       -3.88440       -0.75000
H          0.21360       -2.34010       -1.47290
N          2.85100       -0.56130       -2.32190
F          0.25460       -0.72670        2.59170
F          2.13560       -1.93080        2.87430
F          2.25050        0.20530        2.15560
Cl         3.88250       -5.86330       -0.14640
Cl         4.87950       -3.85440       -1.96910
Cl         5.45680       -3.69820        0.87030
