20
TSA8_9_Cl_NO2_OMe
C          3.24790        1.66620       -0.68930
C          1.81630        1.43510       -1.14510
Cl         3.72080        0.26150        0.32290
H          3.91880        1.68780       -1.57220
N          1.49870        1.30410       -2.46480
C          3.39170        3.04510        0.02930
C          2.66700        3.11100        1.36210
C          1.63640        3.93690        1.57130
O          0.93210        1.36010       -0.30160
O          4.72930        3.52540        0.13890
H          2.91140        3.77150       -0.66460
H          2.98460        2.47090        2.17860
H          1.27480        4.59810        0.79020
H          1.14390        3.95350        2.53840
O          0.36470        1.12070       -2.79310
O          2.42770        1.37600       -3.39460
C          5.61670        2.64550        0.79270
H          6.52300        3.22000        1.07290
H          5.95050        1.84370        0.10170
H          5.20730        2.24330        1.74190
