20
TSA8_9_Cl_NO2_OMe
C          1.80670        0.12210       -0.13420
C          1.46900        1.16400       -0.94220
Cl         2.08990        0.15840        1.60360
H          1.90270       -0.86980       -0.56120
N          1.24110        0.91460       -2.33000
C          3.88410        4.32190        0.72480
C          3.22120        3.14930        0.70490
C          1.71570        3.09140        0.63980
O          1.31230        2.45870       -0.52070
O          5.24180        4.41580        0.76880
H          3.32150        5.25010        0.70180
H          3.76810        2.21450        0.72630
H          1.29850        4.12100        0.62140
H          1.28070        2.60550        1.53330
O          0.94110        1.81780       -3.05200
O          1.36040       -0.29540       -2.83720
C          6.12720        3.35730        0.77710
H          7.16350        3.75150        0.80970
H          6.00840        2.75110       -0.14670
H          5.96030        2.72300        1.67360
