14
TSA8_9_F_Cl_H
C          1.39390       -1.84730       -0.64140
C          0.91500       -1.04240        0.53730
F          0.99280       -1.22500       -1.81090
H          2.50540       -1.84840       -0.61900
Cl         2.07300       -0.39680        1.68970
C          0.96060       -3.32880       -0.65770
C         -0.52100       -3.57930       -0.79650
C         -1.39040       -3.38380        0.19890
O         -0.26640       -0.76960        0.67110
H          1.44640       -3.77610       -1.55230
H          1.35000       -3.86710        0.23360
H         -0.89240       -3.98040       -1.73520
H         -1.06720       -3.03090        1.17160
H         -2.44280       -3.60180        0.04900
