14
TSA8_9_F_Cl_H
C          1.57370       -2.05660       -0.77590
C          0.98720       -1.37140        0.46680
F          1.13310       -1.38650       -1.90500
H          2.68310       -2.00870       -0.75670
Cl         1.73550       -1.90330        2.00730
C          1.10120       -3.51070       -0.82630
C         -0.42400       -3.54210       -0.74980
C         -0.87690       -2.78830        0.50730
O         -0.43180       -1.43920        0.49720
H          1.45270       -4.00280       -1.75780
H          1.51760       -4.07080        0.03910
H         -0.85970       -3.05420       -1.64930
H         -0.54230       -3.31380        1.42830
H         -1.98640       -2.79170        0.53030
