19
TSA8_9_NH2_F_CHF2
C          2.21650       -2.23890       -0.56370
C          0.91390       -2.70530        0.04080
N          2.15190       -0.79610       -0.81710
H          3.02660       -2.42490        0.17660
F          0.90380       -3.24910        1.28620
C          2.56590       -2.99100       -1.87740
C          3.88010       -2.46360       -2.41400
C          3.96970       -1.84370       -3.59440
O         -0.13390       -2.59530       -0.57670
C          2.68930       -4.51740       -1.68890
H          1.75580       -2.80400       -2.61900
H          4.78060       -2.58660       -1.81780
H          3.09500       -1.69330       -4.21920
H          4.93070       -1.47660       -3.94020
H          1.96160       -0.28690        0.07680
H          1.38640       -0.58010       -1.49760
F          3.66270       -4.82280       -0.75260
F          1.48670       -5.07200       -1.28990
H          2.96760       -4.98690       -2.65690
