19
TSA8_9_NH2_F_CHF2
C          1.71110       -0.06550       -0.05400
C          1.41670       -1.38000        0.04510
N          2.02970        0.60480       -1.26480
H          1.66510        0.53140        0.85230
F          1.04180       -1.84580        1.26520
C          2.87500       -4.56380       -3.03780
C          2.96790       -3.73950       -1.98420
C          2.37660       -2.36010       -1.99430
O          1.44120       -2.27520       -0.98100
C          3.47390       -5.93800       -3.00070
H          2.36000       -4.24490       -3.93990
H          3.48520       -4.06770       -1.08670
H          1.88100       -2.14450       -2.96510
H          3.21540       -1.64890       -1.83970
H          2.23930        1.61280       -1.23600
H          1.97230        0.15510       -2.18610
F          4.83910       -5.85300       -2.79500
F          2.89960       -6.67590       -1.98140
H          3.28680       -6.45200       -3.96640
