19
TSA8_9_NH2_F_CHF2
C          2.29760       -2.41210       -0.60120
C          1.20570       -1.41640       -1.03640
N          3.53880       -1.69470       -0.28690
H          1.96510       -2.93660        0.32140
F         -0.04460       -2.01410       -1.10820
C          2.49210       -3.45230       -1.73240
C          2.75160       -2.73320       -3.06310
C          1.62750       -1.71710       -3.31050
O          1.53980       -0.77050       -2.25620
C          3.58600       -4.48970       -1.43050
H          1.53590       -4.01270       -1.84410
H          3.73120       -2.20980       -3.05150
H          0.65300       -2.23170       -3.46510
H          1.84960       -1.17580       -4.25360
H          3.36980       -1.06400        0.53080
H          3.84900       -1.10040       -1.08760
F          4.82890       -3.89320       -1.30890
F          3.28990       -5.16660       -0.26080
H          3.63190       -5.22830       -2.25940
