27
TSA8_9_CBr3_Et_OMe
C          1.39230       -0.25620        0.23530
C          1.49860        0.05090       -1.07500
C          1.59060        0.75000        1.34910
H          1.16630       -1.27960        0.52080
C          1.31690       -1.04430       -2.11470
C          4.06160        3.38770       -3.29280
C          3.40010        2.74760       -2.31290
C          2.25600        1.82390       -2.61710
O          1.75780        1.34270       -1.42130
O          5.09620        4.25520       -3.09260
H          3.75670        3.21220       -4.32000
H          3.65870        2.88180       -1.27330
H          2.60400        1.01010       -3.28460
H          1.46020        2.40210       -3.13280
Br         1.30870       -0.10850        3.06340
Br         3.40630        1.43370        1.33110
Br         0.34970        2.23710        1.21650
C          0.10240       -0.77340       -2.99960
H          1.15750       -2.03110       -1.62690
H          2.23130       -1.13500       -2.73610
H         -0.81860       -0.72970       -2.38020
H         -0.00960       -1.59610       -3.73680
H          0.21160        0.18090       -3.55320
C          5.66180        4.68400       -1.90310
H          6.74010        4.42400       -1.89980
H          5.20400        4.25030       -0.99740
H          5.56470        5.78730       -1.83510
