15
TSA8_9_I_H_CN
C          2.56040        1.05210       -1.54740
C          1.74780       -0.01480       -2.23480
I          3.22310        0.79430        0.46850
H          1.81050        1.08060       -0.74930
H          1.80280       -1.03570       -1.87930
C          2.44010        2.48010       -2.18630
C          1.78540        3.38290       -1.17550
C          0.45720        3.38830       -1.07900
O          0.83560        0.28180       -2.99450
C          3.65210        3.12300       -2.71580
H          1.80940        2.44610       -3.08820
H          2.39110        3.88770       -0.42960
H         -0.14450        2.81040       -1.77910
H         -0.01960        3.92640       -0.27730
N          4.62680        3.62950       -3.06350
