24
TSA8_9_CF3_OMe_CCl3
C          3.20710        0.86310       -0.96630
C          2.06430        0.54360       -1.91110
C          2.71960        0.69390        0.49540
H          3.96510        0.07070       -1.14310
O          2.18130       -0.52460       -2.73850
C          3.85480        2.23890       -1.38250
C          2.92460        3.41120       -1.12230
C          2.39810        4.13910       -2.11230
O          1.05830        1.24090       -1.93050
C          5.27630        2.55140       -0.81650
H          4.02010        2.14090       -2.48130
H          2.67980        3.68180       -0.10100
H          2.61150        3.91430       -3.15210
H          1.74170        4.97150       -1.87940
F          3.76480        0.77520        1.38860
F          1.76070        1.63310        0.82540
F          2.15770       -0.56270        0.64460
C          1.24250       -0.87750       -3.68420
H          1.58560       -1.79140       -4.21160
H          1.12630       -0.05950       -4.42670
H          0.26680       -1.08840       -3.19690
Cl         6.40410        1.19650       -1.10420
Cl         5.95510        3.96050       -1.68410
Cl         5.31600        2.97360        0.91770
