24
TSA8_9_CF3_OMe_CCl3
C          1.93520        0.03120        0.11530
C          1.79130        0.38540       -1.17660
C          1.55600        0.87200        1.31040
H          2.36610       -0.94270        0.32960
O          2.17980       -0.49680       -2.13270
C          4.39650        2.85560       -2.38500
C          3.45700        2.63140       -1.44990
C          1.98180        2.75970       -1.75660
O          1.26630        1.58910       -1.53370
C          5.88610        2.74520       -2.14970
H          4.08060        3.13880       -3.38570
H          3.72940        2.35400       -0.43870
H          1.81670        3.07360       -2.80960
H          1.56830        3.55480       -1.10270
F          2.69020        1.11630        2.06130
F          0.98470        2.08130        0.96400
F          0.65320        0.16810        2.08440
C          2.10430       -0.24350       -3.48480
H          2.45940       -1.13540       -4.04150
H          2.74990        0.62000       -3.74970
H          1.05370       -0.03320       -3.77870
Cl         6.55080        1.54560       -3.28330
Cl         6.63470        4.32310       -2.48880
Cl         6.35060        2.25540       -0.49200
