22
TSA8_9_Me_Me_NO2
C          1.84350       -0.10870       -0.07060
C          1.50900       -1.14870       -0.88810
C          1.97620        1.36180       -0.36130
H          2.03990       -0.33930        0.97330
C          1.42560       -2.52530       -0.28450
C          3.55130       -0.20740       -4.52750
C          2.91980        0.08360       -3.37540
C          1.44040       -0.15230       -3.19980
O          1.22710       -1.10600       -2.22650
N          4.95110       -0.01290       -4.69540
H          2.98360       -0.61510       -5.36000
H          3.48540        0.48220       -2.54070
H          1.00920       -0.54730       -4.14470
H          0.87230        0.77190       -2.99440
H          1.77460        1.68030       -1.38570
H          3.00820        1.68310       -0.11100
H          1.27000        1.91330        0.29410
H          2.14500       -3.19250       -0.80440
H          0.39980       -2.92550       -0.42420
H          1.66160       -2.54230        0.80100
O          5.62570        0.42030       -3.80950
O          5.51640       -0.33650       -5.83730
