18
TSA8_9_OH_CH2F_Br
C          2.97600       -0.87850       -0.86580
C          1.45860       -1.23250       -1.03950
O          3.15140        0.51430       -0.88630
H          3.37350       -1.26920        0.09930
C          1.09360       -2.48010       -0.23490
C          3.74870       -1.50210       -2.03240
C          3.22330       -0.95550       -3.37180
C          1.73610       -0.57470       -3.27140
O          1.06070       -1.45010       -2.39630
Br         5.66540       -1.23050       -1.88160
H          3.56300       -2.59780       -2.00850
H          3.76680       -0.04830       -3.71220
H          1.27840       -0.60970       -4.28140
H          1.61210        0.47420       -2.91620
H          2.76300        0.85990       -0.04020
F         -0.26200       -2.72760       -0.35140
H          1.33030       -2.32090        0.83820
H          1.65720       -3.36250       -0.60480
