22
TSA8_9_Br_NH2_Et
C          1.92630       -0.37500        0.04040
C          1.35300       -1.60350        0.03760
Br         2.71920        0.57880       -1.42230
H          1.92980        0.18810        0.96860
N          0.79290       -2.08170        1.24790
C          4.43960       -3.30800       -2.55440
C          3.45440       -3.05670       -1.68150
C          2.11010       -2.55600       -2.13440
O          1.26720       -2.43200       -1.04810
C          5.77090       -3.85260       -2.10800
H          4.27550       -3.13750       -3.61530
H          3.61730       -3.23670       -0.62190
H          1.67630       -3.31140       -2.82120
H          2.18300       -1.61910       -2.71070
H          0.36420       -3.01680        1.28180
H          0.82300       -1.52290        2.11490
C          6.49810       -2.90150       -1.15880
H          6.40940       -4.01700       -3.00270
H          5.61600       -4.83070       -1.60380
H          6.67840       -1.92510       -1.65600
H          7.47560       -3.34380       -0.87210
H          5.90760       -2.73700       -0.23300
