22
TSA8_9_Br_NH2_Et
C          3.42570       -1.53210       -0.44520
C          1.88790       -1.53390       -0.26980
Br         4.00170        0.28440       -0.83470
H          3.86160       -1.81880        0.53600
N          1.42380       -2.58340        0.63890
C          3.89170       -2.49260       -1.57710
C          2.80860       -3.54000       -1.82590
C          1.51670       -2.79910       -2.24730
O          1.21190       -1.61070       -1.51190
C          5.23950       -3.18030       -1.27280
H          3.97730       -1.92790       -2.53320
H          2.65100       -4.14220       -0.90620
H          0.65670       -3.50030       -2.22310
H          1.66480       -2.48500       -3.30250
H          0.39040       -2.49090        0.75390
H          1.85710       -2.43560        1.57830
C          6.40130       -2.20200       -1.11350
H          5.48540       -3.86980       -2.11000
H          5.14850       -3.78460       -0.34320
H          6.52940       -1.60250       -2.03930
H          7.33610       -2.76990       -0.92270
H          6.23330       -1.52420       -0.25170
