17
TSA8_9_F_H_CH2F
C          3.07530       -0.64530       -2.07850
C          1.67560       -0.51810       -1.54160
F          3.97870       -0.44550       -1.04730
H          3.19290       -1.68610       -2.45140
H          1.00030       -1.36590       -1.59620
C          3.34990        0.32800       -3.24930
C          3.27370        1.77180       -2.80070
C          2.38790        2.62890       -3.31760
O          1.29120        0.52020       -1.02690
C          4.72840        0.06200       -3.87310
H          2.59080        0.13100       -4.04050
H          3.95950        2.12540       -2.03570
H          1.68450        2.31790       -4.08370
H          2.36350        3.65700       -2.97100
F          5.74510        0.27750       -2.95790
H          4.88390        0.73470       -4.74380
H          4.78640       -0.98650       -4.23560
