19
TSA8_9_CCl3_Br_NH2
C          1.81120       -0.02170       -0.03240
C          1.11570       -1.16020       -0.21960
C          2.17190        1.02960       -1.06550
H          2.15720        0.18320        0.97760
Br         0.81360       -2.28120        1.31860
C         -0.12900       -3.76660       -3.87540
C         -0.46360       -2.69620       -3.14140
C         -0.15350       -2.61510       -1.67500
O          0.63900       -1.51230       -1.44000
N         -0.43160       -3.82570       -5.25820
H          0.37990       -4.60870       -3.41520
H         -0.97530       -1.85830       -3.60830
H          0.36970       -3.53420       -1.33130
H         -1.10830       -2.51220       -1.11540
Cl         1.61260        0.73360       -2.73770
Cl         1.48410        2.58390       -0.53760
Cl         3.94360        1.18880       -1.10920
H         -0.91100       -3.04790       -5.73430
H         -0.16840       -4.65830       -5.80340
