19
TSA8_9_CCl3_Br_NH2
C          1.59340       -1.41650       -1.86840
C          1.08030       -1.58910       -0.41990
C          1.57500        0.10120       -2.26770
H          2.66870       -1.70030       -1.89180
Br         1.73270       -3.19070        0.48920
C          0.82260       -2.44960       -2.74790
C         -0.69330       -2.33560       -2.55350
C         -1.01340       -2.41600       -1.05670
O         -0.32690       -1.42050       -0.31230
N          1.18220       -2.39060       -4.16430
H          1.11250       -3.45970       -2.37660
H         -1.08810       -1.39570       -2.98350
H         -0.79320       -3.43150       -0.66380
H         -2.10540       -2.26580       -0.92740
Cl         2.32350        0.39190       -3.86160
Cl        -0.03470        0.87530       -2.25810
Cl         2.58080        1.01600       -1.10600
H          0.71760       -1.57200       -4.61900
H          0.81910       -3.24860       -4.64050
