23
TSA8_9_Et_I_CCl3
C          2.34010        1.27980        0.67700
C          0.97680        1.13540        0.02680
C          2.57950        0.00100        1.52620
H          3.08540        1.27910       -0.14880
I          0.81010        1.00990       -2.07550
C          2.37350        2.66980        1.42630
C          2.14300        3.75130        0.37940
C          1.06110        4.53770        0.39740
O         -0.03720        1.08580        0.70640
C          3.64500        3.03760        2.25080
H          1.52960        2.68730        2.15370
H          2.87610        3.88900       -0.41040
H          0.92920        5.29660       -0.36630
H          0.30270        4.43290        1.16750
C          4.05160       -0.41290        1.65410
H          2.12890       -0.86730        0.99240
H          2.06520        0.07980        2.50770
H          4.47910       -0.59150        0.64450
H          4.11420       -1.36180        2.22820
H          4.69070        0.32340        2.15670
Cl         5.14120        2.89500        1.28280
Cl         3.54820        4.72880        2.83360
Cl         3.76890        2.07760        3.75240
