23
TSA8_9_Et_I_CCl3
C          2.36260        1.37710        0.76440
C          0.95120        1.41670        0.10010
C          2.50250        0.08900        1.62960
H          3.08330        1.33300       -0.08220
I          0.55970       -0.27100       -1.17940
C          2.53200        2.71790        1.58600
C          2.20110        3.89940        0.65500
C          0.81570        3.70400        0.05150
O          0.81890        2.54430       -0.73790
C          3.89250        2.99270        2.29950
H          1.75480        2.73320        2.38400
H          2.95370        3.98790       -0.15870
H          0.58540        4.57430       -0.59670
H          0.02350        3.66390        0.83520
C          3.91640       -0.50620        1.61440
H          1.89000       -0.73280        1.21410
H          2.11170        0.26250        2.65310
H          4.18760       -0.79000        0.57460
H          3.93530       -1.42410        2.23950
H          4.69630        0.17910        1.97930
Cl         5.27520        2.83660        1.17940
Cl         3.92530        4.65420        2.96760
Cl         4.13610        1.95300        3.73070
