22
TSA8_9_CBr3_CBr3_NO2
C          1.95440       -2.25650       -0.32480
C          1.36130       -1.37480        0.85080
C          1.94190       -1.51380       -1.72350
H          3.03030       -2.43910       -0.11380
C          2.35990       -1.09410        2.00830
C          1.25220       -3.64780       -0.26200
C         -0.27920       -3.50410       -0.33370
C         -0.75560       -2.29530        0.48720
O          0.20070       -1.95130        1.45910
N          1.77830       -4.62310       -1.20090
H          1.44930       -4.05150        0.75570
H         -0.71330       -3.45400       -1.35350
H         -1.71560       -2.55780        0.97690
H         -0.98520       -1.40730       -0.13290
Br         0.21500       -1.06710       -2.48790
Br         2.88100        0.17910       -1.63950
Br         2.88880       -2.51050       -3.09590
Br         4.02110       -0.25080        1.47110
Br         1.52160        0.11160        3.27530
Br         2.82060       -2.72400        2.96170
O          2.92490       -4.94940       -1.13320
O          0.99050       -5.21880       -2.07250
