14
TSA8_9_H_I_F
C          1.12630       -0.02490       -1.47310
C          1.72050       -1.16460       -0.69280
H          1.95370        0.61780       -1.84400
H          0.48320        0.59010       -0.80720
I          1.22900       -1.43530        1.34200
C          0.29690       -0.51930       -2.66510
C         -0.87920       -1.34000       -2.20080
C         -1.04120       -2.61510       -2.56530
O          2.49460       -1.94150       -1.22900
F         -0.17840        0.57220       -3.36950
H          0.95250       -1.10880       -3.34410
H         -1.61590       -0.87980       -1.54850
H         -0.32540       -3.11030       -3.21420
H         -1.90020       -3.17480       -2.20980
