14
TSA8_9_H_I_F
C          2.23590       -0.17910        0.11720
C          1.37580       -1.10490       -0.30810
H          2.69710        0.50840       -0.58560
H          2.48630       -0.09900        1.16970
I          0.52870       -2.41250        1.14540
C         -0.93780       -1.28530       -4.34890
C         -0.79640       -1.15050       -3.02590
C          0.16330       -1.99510       -2.23900
O          1.09510       -1.17260       -1.63640
F         -1.81740       -0.49810       -5.02160
H         -0.35720       -2.01700       -4.90180
H         -1.39290       -0.40920       -2.50340
H          0.69820       -2.70890       -2.90130
H         -0.41810       -2.58420       -1.50300
