14
TSA8_9_H_I_F
C          1.26590       -0.25230       -1.57220
C          1.39370       -1.54850       -0.74160
H          2.25740        0.11130       -1.91480
H          0.83260        0.52370       -0.90580
I          0.25800       -1.56730        1.09120
C          0.37110       -0.46480       -2.80130
C         -0.76630       -1.39240       -2.41030
C         -0.13820       -2.76620       -2.07090
O          1.17600       -2.71700       -1.50840
F         -0.09940        0.74860       -3.26970
H          0.94800       -0.96180       -3.61330
H         -1.28840       -0.95530       -1.53110
H         -0.03300       -3.29640       -3.04050
H         -0.82550       -3.36820       -1.43970
