17
TSA8_9_I_CCl3_I
C          2.99260        1.36610        0.74440
C          1.52550        1.73150        0.63980
I          3.23610       -0.68390        0.12780
H          3.54570        1.98780        0.00850
C          1.07060        2.84390       -0.28150
C          3.64620        1.65970        2.12260
C          3.16590        0.80710        3.27660
C          1.97230        0.96170        3.85650
O          0.69750        1.09380        1.27210
I          5.77810        1.40990        1.94940
H          3.51570        2.73220        2.38480
H          3.83580        0.06000        3.69210
H          1.27460        1.72210        3.52780
H          1.69510        0.33200        4.69560
Cl         1.83230        4.38090        0.20150
Cl         1.52830        2.47140       -1.96390
Cl        -0.70210        3.06710       -0.23070
