17
TSA8_9_I_CCl3_I
C          3.03590        1.34090        0.83890
C          1.51150        1.69110        0.92470
I          3.25660       -0.79830        0.71470
H          3.49090        1.73530       -0.09340
C          1.05340        2.72740       -0.12090
C          3.75830        1.93850        2.05510
C          3.13030        1.43630        3.36330
C          1.61490        1.23070        3.19970
O          1.10780        2.11960        2.22760
I          5.88270        1.65680        2.04010
H          3.59920        3.03710        2.01630
H          3.56770        0.48070        3.72390
H          1.11240        1.39060        4.17430
H          1.38320        0.17970        2.90840
Cl         1.88380        4.29140        0.09600
Cl         1.35240        2.13110       -1.77610
Cl        -0.70220        2.99860        0.03680
