17
TSA8_9_CH2F_H_Br
C          1.68140        0.13080        1.62510
C          1.06520        0.96870        0.52980
C          1.43220       -1.36160        1.32680
H          2.77940        0.30570        1.58770
H          1.70260        1.58600       -0.09490
C          1.18440        0.60370        3.02030
C         -0.29380        0.37720        3.23490
C         -1.14060        1.38970        3.44580
O         -0.13910        0.95690        0.32590
Br         2.15630       -0.25220        4.47060
H          1.42050        1.68810        3.10670
H         -0.68410       -0.63550        3.22430
H         -0.79430        2.41850        3.46730
H         -2.19610        1.19040        3.59880
F          2.07980       -2.17490        2.23740
H          1.82740       -1.60630        0.31730
H          0.34800       -1.59890        1.33360
