17
Coordinates from ORCA-job NEB_im3_XTB
  C          -1.64838855919413     -0.05956857555520     -0.02293863610956
  C          -0.60805314920125      0.84316943502948     -0.49940204064308
  F           2.44615447301892      1.88874308049624     -0.49450950877817
  H          -2.70281062492320     -0.06685983694345     -0.30918522587211
  C          -1.07644983063225      2.30330434502054     -0.50237462862802
  C           0.13314815350906     -1.96114378715235      1.51747265747601
  C           1.21624957899240     -1.51008337002269      0.69189821998787
  C           0.92926031867555     -1.15808612361498     -0.73937541307173
  O           0.49071181939938      0.15759924260977     -0.92221079761794
  F           0.55187466310983     -2.37947708783345      2.75560212787580
  H          -0.43035216591645     -2.79832487377923      1.07417710784871
  H           2.00003389954477     -0.93028307405212      1.18485064561038
  H           0.25134031400483     -1.90074251051680     -1.20301911091101
  H           1.87685767147989     -1.27138965115632     -1.30186826937404
  F          -2.16803057531907      3.01707372842226     -1.00826092692056
  F          -1.13378734636037      2.68502800392570      0.82635156564731
  F          -0.12775864018791      3.14104105512260     -1.04720776651986
