17
TSA8_9_F_CF3_F
C          1.90060       -0.00420        0.18940
C          1.57860       -0.00580        1.50420
F          2.28120       -1.12190       -0.48070
H          1.83280        0.90680       -0.39530
C          1.10140        1.25820        2.17990
C          2.95550       -3.66110        4.10150
C          3.13200       -2.53720        3.39980
C          2.38740       -2.26730        2.12500
O          1.63270       -1.11990        2.29120
F          3.65220       -3.85990        5.25050
H          2.25990       -4.42540        3.76880
H          3.83550       -1.79180        3.75950
H          1.70810       -3.11050        1.87470
H          3.14800       -2.16440        1.32880
F         -0.16730        1.04920        2.68720
F          1.95590        1.56030        3.22370
F          1.05900        2.34060        1.31670
