20
TSA8_9_CHF2_F_CCl3
C          1.85680        0.01790        0.00560
C          2.13960       -1.29500        0.04250
C          1.44950        0.78900       -1.22450
H          1.96040        0.58690        0.92390
F          2.55200       -1.82180        1.22550
C          2.39570       -5.51200       -0.56680
C          2.78950       -4.25600       -0.30350
C          2.80640       -3.18020       -1.36440
O          2.03350       -2.07110       -1.06660
C          2.45830       -6.59250        0.48610
H          2.04680       -5.77000       -1.56350
H          3.15140       -4.02050        0.68930
H          2.45630       -3.58720       -2.33800
H          3.85730       -2.85220       -1.49800
F          2.39200        1.76800       -1.47110
F          1.32710       -0.00680       -2.34960
H          0.47180        1.28240       -1.03870
Cl         1.89620       -8.14110       -0.19160
Cl         4.14020       -6.80870        1.04470
Cl         1.42800       -6.17640        1.88050
