16
TSA8_9_OH_I_OH
C          0.75310       -1.00230       -1.12980
C          1.46630       -1.30620        0.16420
O          1.66980       -0.47700       -2.05410
H         -0.05710       -0.25780       -0.94610
I          0.86410       -0.36860        1.95670
C          0.10480       -2.26710       -1.72210
C         -0.92390       -2.83250       -0.77050
C         -0.81470       -4.06320       -0.26130
O          2.39820       -2.09510        0.18730
O         -0.52520       -1.93510       -2.93160
H          0.91850       -3.00570       -1.92150
H         -1.77540       -2.21970       -0.49070
H          0.02380       -4.70470       -0.51540
H         -1.57150       -4.43610        0.42110
H          1.84550        0.46170       -1.78130
H         -0.67770       -2.78750       -3.41840
