20
TSA8_9_CF3_H_Me
C          1.43930        0.98080        2.17000
C          1.30950        1.42290        0.72940
C          1.30800       -0.56100        2.25760
H          2.47740        1.23100        2.48400
H          2.15500        1.89050        0.23480
C          0.47850        1.81560        3.08080
C         -0.98690        1.61480        2.75150
C         -1.75420        2.61430        2.30390
O          0.27320        1.25450        0.10520
C          0.69150        1.55340        4.57750
H          0.74880        2.88400        2.91440
H         -1.43910        0.63850        2.88920
H         -1.34990        3.61100        2.15420
H         -2.80100        2.43690        2.08220
F          2.23700       -1.14600        1.41390
F          1.56850       -1.01150        3.53730
F          0.04940       -0.98640        1.87520
H          0.38890        0.52620        4.86320
H          0.07180        2.25810        5.17290
H          1.75600        1.71530        4.84990
