18
TSA8_9_NO2_H_NH2
C          1.93890        0.01580        0.13880
C          1.26710        0.80540        0.99240
N          2.15440       -1.37660        0.35480
H          2.33280        0.46870       -0.76740
H          1.14520        1.85620        0.73780
C         -0.11920        0.67850        5.42650
C         -0.43890        0.31020        4.17740
C         -0.01810        1.11670        2.98320
O          0.74050        0.32970        2.14510
N         -0.52930       -0.09390        6.54140
H          0.45960        1.58130        5.60000
H         -1.02170       -0.59190        4.01200
H          0.56980        2.01040        3.29170
H         -0.92970        1.45870        2.44690
O          2.75590       -2.00810       -0.45950
O          1.69130       -1.98600        1.42610
H         -1.07900       -0.95730        6.42010
H         -0.27810        0.21020        7.49300
