20
TSA8_9_CHF2_CBr3_H
C          2.58830       -1.72730       -0.31910
C          1.29030       -2.12630        0.36420
C          2.39040       -0.44140       -1.14490
H          3.33610       -1.47020        0.46360
C          1.17440       -2.14510        1.87390
C          3.20760       -2.92610       -1.09110
C          2.36910       -3.54350       -2.18480
C          2.14980       -2.95490       -3.36320
O          0.32590       -2.43720       -0.32040
H          3.38090       -3.72380       -0.33630
H          4.20350       -2.65390       -1.50330
H          1.95690       -4.53460       -2.01910
H          1.55310       -3.46000       -4.11520
H          2.57340       -1.98610       -3.60030
F          3.57200       -0.08100       -1.76830
F          1.38650       -0.56900       -2.08600
H          2.09470        0.38270       -0.46120
Br         1.52050       -0.38040        2.59790
Br        -0.59880       -2.68780        2.46090
Br         2.45080       -3.39570        2.62680
