20
TSA8_9_CHF2_CBr3_H
C          1.75680       -0.13650        0.05270
C          1.45390       -1.44540        0.27560
C          1.89630        0.56930       -1.27480
H          1.89670        0.52960        0.89250
C          1.24830       -1.99300        1.68290
C          3.53760       -4.71790       -2.30020
C          2.61520       -4.14790       -1.52190
C          2.29390       -2.68780       -1.64610
O          1.30950       -2.35230       -0.73170
H          3.75760       -5.77540       -2.19640
H          4.07780       -4.13720       -3.04210
H          2.09330       -4.75630       -0.78860
H          1.92480       -2.50230       -2.67620
H          3.22180       -2.09860       -1.46800
F          3.19480        1.01690       -1.42730
F          1.53740       -0.19300       -2.36370
H          1.21580        1.44640       -1.26590
Br         1.40340       -0.72190        3.15510
Br        -0.52470       -2.76710        1.79370
Br         2.54280       -3.39570        2.01610
