19
TSA8_9_NO2_CCl3_F
C          2.46380       -1.32050        0.19860
C          1.26240       -0.78210        0.95680
N          2.58560       -0.62490       -1.07010
H          3.38230       -1.13400        0.80170
C          1.43450       -0.04050        2.26720
C          2.35270       -2.83980       -0.05180
C          2.24310       -3.61480        1.23570
C          1.18570       -4.38710        1.50510
O          0.14390       -0.93480        0.48560
F          3.48040       -3.27400       -0.72690
H          1.46780       -3.03870       -0.69640
H          3.04570       -3.54540        1.96370
H          1.13600       -4.93320        2.44110
H          0.36460       -4.48230        0.80070
O          3.56260        0.01970       -1.30780
O          1.62720       -0.69970       -1.96900
Cl         2.23680       -1.07150        3.47880
Cl         2.42840        1.41510        2.00320
Cl        -0.13480        0.48060        2.94510
