19
TSA8_9_NO2_CCl3_F
C          2.05630       -0.10950        0.20480
C          1.57440       -0.69170        1.35640
N          2.23640       -0.64900       -1.10960
H          2.35200        0.92850        0.26930
C          1.46820        0.13130        2.64280
C          2.96070       -4.74210        0.05500
C          2.65630       -3.58380        0.64500
C          1.22510       -3.16850        0.85120
O          1.15680       -1.98420        1.55230
F          4.26090       -5.09900       -0.11060
H          2.17900       -5.41010       -0.29330
H          3.45920       -2.93670        0.98770
H          0.73600       -3.94730        1.47310
H          0.62450       -3.12150       -0.07570
O          2.69490        0.05910       -1.95370
O          1.86290       -1.85430       -1.45280
Cl         2.47630       -0.64350        3.89220
Cl         1.96910        1.85150        2.56510
Cl        -0.22220        0.11110        3.20740
