25
TSA8_9_NH2_CHF2_Et
C          2.78860       -0.83550        0.24720
C          2.07320       -0.59100        1.56660
N          1.80090       -0.92500       -0.83000
H          3.39210        0.06070        0.00500
C          2.27970        0.67800        2.34260
C          3.75260       -2.08020        0.28730
C          3.11050       -3.33160        0.87670
C          2.11450       -4.00770        0.29890
O          1.28340       -1.42430        1.99050
C          5.04890       -1.78470        1.08930
H          4.09200       -2.32540       -0.74350
H          3.49290       -3.72240        1.81740
H          1.71820       -4.89340        0.78620
H          1.69450       -3.71600       -0.65280
H          1.08030       -1.65630       -0.65530
H          2.28020       -1.09110       -1.74520
F          1.47700        0.69200        3.47120
F          3.60130        0.78240        2.73060
H          2.01230        1.54780        1.70800
C          5.96940       -0.75940        0.41330
H          5.64350       -2.72440        1.14980
H          4.81060       -1.46490        2.12640
H          6.23200       -1.10120       -0.61170
H          6.90880       -0.66660        0.99690
H          5.51410        0.24710        0.35450
