25
TSA8_9_NH2_CHF2_Et
C          1.80250        0.06920        0.20180
C          1.46130       -0.53570        1.37530
N          2.08800       -0.56610       -1.03550
H          1.84090        1.15520        0.18400
C          1.14340        0.34220        2.55810
C          4.41830       -2.78830        0.32120
C          3.52310       -2.80250        1.31770
C          2.04740       -2.95660        1.07920
O          1.37630       -1.87970        1.62630
C          5.88950       -2.62260        0.59480
H          4.08960       -2.89500       -0.70870
H          3.85550       -2.69220        2.34640
H          1.71690       -3.86900        1.61690
H          1.77260       -3.13870        0.02920
H          2.00240       -1.56550       -1.20770
H          2.32680        0.02260       -1.84480
F         -0.14010        0.07920        2.99810
F          2.03400        0.06470        3.57910
H          1.21660        1.42540        2.32050
C          6.41820       -1.36480       -0.08360
H          6.43140       -3.51000        0.20480
H          6.08900       -2.54540        1.68650
H          6.26850       -1.42540       -1.18240
H          7.50430       -1.25930        0.12370
H          5.89230       -0.46760        0.30860
