25
TSA8_9_CN_Et_OMe
C          1.66820       -0.07070        0.00750
C          1.54450       -1.39960       -0.22810
C          1.83320        0.99740       -0.96510
H          1.59360        0.28180        1.04080
C          1.51240       -2.33960        0.95180
C          3.53170       -1.98910       -3.97090
C          2.89160       -1.20760       -3.08250
C          1.45280       -1.45260       -2.72230
O          1.39120       -1.98740       -1.45420
O          4.83290       -1.81530       -4.33350
H          3.00020       -2.82090       -4.42110
H          3.41630       -0.39920       -2.59120
H          0.99760       -2.18390       -3.43680
H          0.83640       -0.53380       -2.80630
N          1.96120        1.88070       -1.69270
C          0.13960       -2.95590        1.06510
H          1.76910       -1.80370        1.89530
H          2.25480       -3.16420        0.82560
H         -0.58980       -2.16990        1.23400
H          0.05640       -3.58630        1.95800
H         -0.11000       -3.53540        0.15030
C          5.67020       -0.79300       -3.93330
H          6.67650       -0.95370       -4.37560
H          5.77330       -0.78920       -2.82870
H          5.28170        0.18550       -4.28810
