25
TSA8_9_CN_Et_OMe
C          2.83930       -0.81930       -1.00670
C          1.45370       -1.45350       -0.67890
C          2.52500        0.61660       -1.16400
H          3.54530       -0.92110       -0.15480
C          1.50730       -2.30920        0.61080
C          3.38390       -1.53100       -2.28480
C          2.45610       -1.20510       -3.45970
C          0.98590       -1.44890       -2.99400
O          0.90720       -2.19200       -1.77750
O          4.80510       -1.57460       -2.43760
H          3.19740       -2.61560       -2.13330
H          2.55370       -0.13570       -3.77120
H          0.49630       -2.04120       -3.79250
H          0.39990       -0.50500       -2.90270
N          2.24860        1.73010       -1.32420
C          0.15340       -2.92330        0.96980
H          1.82090       -1.66200        1.46180
H          2.25450       -3.12470        0.50530
H         -0.60830       -2.13120        1.12980
H          0.24350       -3.51400        1.90840
H         -0.18750       -3.60740        0.16550
C          5.45520       -0.69680       -3.32790
H          6.06690       -1.29090       -4.05030
H          6.18590       -0.11840       -2.72520
H          4.80970       -0.01390       -3.90570
