15
TSA8_9_Br_CN_H
C          1.47030       -1.89120       -0.10620
C          2.35530       -1.94180        1.10660
Br         2.32560       -0.91350       -1.55340
H          0.56590       -1.31790        0.18820
C          1.84170       -1.42110        2.35140
C          1.07040       -3.31090       -0.55750
C         -0.29850       -3.31380       -1.18390
C         -1.37200       -3.01920       -0.43520
O          3.43600       -2.50870        1.07780
H          1.84350       -3.71980       -1.24530
H          1.00250       -3.99890        0.31360
H         -0.42810       -3.57990       -2.22740
H         -1.25970       -2.77550        0.62060
H         -2.36910       -3.02980       -0.85700
N          1.42420       -1.01580        3.35240
