15
TSA8_9_Br_CN_H
C          1.70540       -0.03120        0.08130
C          1.57930       -1.20260        0.72230
Br         1.84210        0.02600       -1.83810
H          1.61830        0.91170        0.60780
C          1.34130       -1.27430        2.14770
C          0.12930       -5.27940       -1.06490
C          0.41700       -3.98970       -1.22370
C          0.37780       -3.03410       -0.08370
O          1.56160       -2.33720       -0.00500
H          0.14100       -5.93760       -1.92440
H         -0.13370       -5.67910       -0.09040
H          0.65440       -3.60530       -2.21160
H          0.12220       -3.50800        0.88960
H         -0.42570       -2.31830       -0.33360
N          1.14880       -1.37400        3.28460
