15
TSA8_9_Br_CN_H
C          1.60820       -2.00220       -0.60270
C          1.63310       -2.20410        0.94510
Br         3.09510       -1.04480       -1.39070
H          0.74290       -1.36980       -0.88890
C          1.36690       -0.98000        1.70230
C          1.38190       -3.39980       -1.18220
C         -0.06900       -3.75510       -0.83870
C         -0.41990       -3.27240        0.58930
O          0.74770       -3.23900        1.39550
H          1.54130       -3.48400       -2.27540
H          2.06200       -4.13920       -0.68960
H         -0.74320       -3.20160       -1.53740
H         -1.19980       -3.92520        1.02510
H         -0.87150       -2.24920        0.56550
N          1.12820       -0.01320        2.28900
