19
TSA8_9_Br_NO2_CHF2
C          2.34320       -0.78690        1.65510
C          1.51620        0.08540        2.58210
Br         1.21300       -1.28470        0.14690
H          3.20560       -0.22480        1.23740
N          1.86700        1.37190        2.86230
C          2.87760       -2.04190        2.39210
C          3.61700       -2.94570        1.42850
C          3.21630       -4.19910        1.18910
O          0.50700       -0.39000        3.08740
C          3.82190       -1.66020        3.54870
H          2.00940       -2.58980        2.82370
H          4.49750       -2.56920        0.91540
H          2.34120       -4.61330        1.68100
H          3.76710       -4.82220        0.49270
O          1.19380        2.03080        3.59600
O          2.94800        1.90530        2.33500
F          4.24840       -2.79990        4.20810
F          4.92740       -0.97300        3.07500
H          3.29430       -1.01740        4.28380
