23
TSA8_9_Et_CH2F_I
C          2.47660       -0.80070       -1.21200
C          1.21010       -1.63680       -1.17760
C          2.13780        0.64030       -0.76160
H          3.18030       -1.20140       -0.44850
C          1.08430       -2.78320       -0.21550
C          3.20290       -0.92620       -2.58990
C          2.37690       -0.55820       -3.80590
C          1.97750        0.68650       -4.08290
O          0.27770       -1.36780       -1.92290
I          3.88600       -2.95330       -2.83850
H          4.13630       -0.32680       -2.59260
H          2.11170       -1.33920       -4.51190
H          1.39670        0.87590       -4.97980
H          2.23090        1.52530       -3.44880
C          3.37140        1.53440       -0.62010
H          1.65870        0.58410        0.24130
H          1.40210        1.11390       -1.44070
H          4.09190        1.08490        0.09650
H          3.06360        2.52850       -0.23260
H          3.87390        1.69000       -1.59510
F         -0.14860       -3.39770       -0.34250
H          1.19370       -2.40720        0.82310
H          1.87970       -3.52980       -0.41600
