23
TSA8_9_Et_CH2F_I
C          1.75180       -0.19150       -0.07690
C          1.35350       -1.06900       -1.02670
C          1.87280        1.29770       -0.28330
H          1.97780       -0.55840        0.92080
C          1.18820       -2.52490       -0.67830
C          3.70700       -1.34490       -4.68020
C          2.76230       -1.48700       -3.74690
C          1.99560       -0.29710       -3.23980
O          1.05520       -0.66870       -2.29210
I          4.76750       -3.02460       -5.39340
H          3.94350       -0.36640       -5.08750
H          2.54850       -2.47740       -3.36420
H          1.46260        0.16130       -4.09920
H          2.70260        0.45130       -2.82660
C          3.30580        1.75600       -0.04070
H          1.20050        1.80690        0.43970
H          1.55520        1.61020       -1.29780
H          3.62300        1.50190        0.99340
H          3.37150        2.85670       -0.17170
H          3.99360        1.26840       -0.76390
F         -0.12020       -2.90640       -0.90820
H          1.43420       -2.73040        0.38560
H          1.85940       -3.14480       -1.30380
