23
TSA8_9_Et_CH2F_I
C          2.61550       -0.46760       -1.14140
C          1.21350       -1.11190       -1.25840
C          2.43320        1.02990       -0.77340
H          3.15690       -0.90420       -0.27340
C          1.18890       -2.63860       -1.13290
C          3.42680       -0.70140       -2.44870
C          2.52850       -0.96480       -3.66750
C          1.18190       -0.25620       -3.51820
O          0.43480       -0.65460       -2.36740
I          4.79080       -2.35020       -2.25010
H          4.07830        0.16690       -2.65720
H          2.30220       -2.04470       -3.76760
H          0.58100       -0.50170       -4.41880
H          1.32370        0.84230       -3.52410
C          3.74410        1.72700       -0.39410
H          1.77680        1.08650        0.12340
H          1.94100        1.60330       -1.58090
H          4.22880        1.19800        0.45390
H          3.52620        2.76890       -0.07760
H          4.45340        1.77680       -1.24260
F         -0.12160       -3.07530       -1.08410
H          1.69390       -2.93840       -0.19100
H          1.69910       -3.14100       -1.97440
