20
TSA8_9_CHF2_CH2F_F
C          1.92130       -0.07280       -0.01860
C          1.27850       -1.19710       -0.40000
C          2.11160        1.15890       -0.87120
H          2.33970       -0.01770        0.98280
C          1.16130       -2.34900        0.57770
C         -0.08710       -3.01660       -4.47430
C         -0.37290       -2.08540       -3.55740
C         -0.08030       -2.29460       -2.10030
O          0.74960       -1.28760       -1.65300
F         -0.36860       -2.79070       -5.78410
H          0.36770       -3.96060       -4.19010
H         -0.83310       -1.15310       -3.87170
H          0.39650       -3.28580       -1.93780
H         -1.03960       -2.25790       -1.54030
F          3.46320        1.41330       -1.00490
F          1.55190        1.04460       -2.13080
H          1.63660        2.01900       -0.35630
F         -0.16820       -2.61870        0.84060
H          1.66550       -2.12890        1.54290
H          1.64300       -3.25000        0.14510
