20
TSA8_9_CHF2_CH2F_F
C          1.68180       -0.78680       -1.48690
C          0.71790       -1.23860       -0.36680
C          1.50470        0.72620       -1.74780
H          2.73360       -0.90780       -1.14450
C          1.13630       -2.51780        0.37390
C          1.46440       -1.68180       -2.72700
C         -0.01270       -1.72570       -3.11490
C         -0.84020       -2.13440       -1.88970
O         -0.64190       -1.25120       -0.79400
F          2.23460       -1.26260       -3.79730
H          1.77300       -2.71910       -2.47550
H         -0.35470       -0.74380       -3.49710
H         -0.63250       -3.18590       -1.60100
H         -1.91240       -2.10560       -2.17520
F          2.38950        1.15780       -2.71960
F          0.21670        1.05930       -2.12370
H          1.73320        1.27830       -0.81100
F          0.25400       -2.76300        1.40940
H          2.15110       -2.37730        0.80090
H          1.16690       -3.40090       -0.29440
