23
TSA8_9_Et_H_Me
C          1.66240        0.59410       -2.13820
C          0.24540        1.24250       -2.00300
C          2.48720        0.92070       -0.85930
H          1.51770       -0.51010       -2.13440
H         -0.49380        0.50560       -2.38280
C          2.21900        1.03660       -3.51690
C          2.32760        2.56900       -3.57960
C          1.18760        3.23910       -2.79290
O          0.03860        2.42250       -2.78460
C          3.49570        0.35730       -4.01740
H          1.43260        0.73700       -4.24730
H          3.29100        2.96420       -3.18970
H          0.95720        4.21840       -3.26090
H          1.47830        3.47850       -1.74900
C          3.78730        0.13550       -0.68950
H          1.85300        0.63160        0.00850
H          2.71090        1.99940       -0.75990
H          3.59870       -0.95560       -0.77490
H          4.20250        0.34180        0.31950
H          4.56170        0.44390       -1.40560
H          3.38660       -0.74630       -3.96990
H          4.39210        0.67510       -3.46280
H          3.67090        0.64410       -5.07640
