19
TSA8_9_H_CHF2_NH2
C          3.04300        2.38260        0.40840
C          1.61640        1.75180        0.32510
H          3.74750        1.62890        0.82330
H          3.41820        2.66390       -0.60000
C          0.82090        2.29500       -0.86570
C          3.00480        3.57290        1.37120
C          2.54830        3.09480        2.76700
C          1.64880        1.85040        2.66290
O          0.83650        1.92590        1.51190
N          4.29910        4.24870        1.43780
H          2.25250        4.29270        0.98530
H          3.39400        2.82240        3.43430
H          1.01980        1.76800        3.57390
H          2.26220        0.91950        2.62610
F         -0.39640        1.64410       -0.94240
F          0.59820        3.65370       -0.73720
H          1.37820        2.10480       -1.80700
H          5.02620        3.59820        1.81430
H          4.22660        5.07480        2.07500
