19
TSA8_9_F_NH2_Me
C          3.06840        1.29540        1.38840
C          1.57570        1.23560        1.15180
F          3.71090        0.50030        0.45250
H          3.40910        2.34320        1.23960
N          0.88070        2.35740        0.84770
C          3.45680        0.86610        2.82250
C          3.12410       -0.58810        3.07630
C          2.27630       -0.96500        4.03820
O          0.98880        0.16590        1.22360
C          4.95640        1.07970        3.05700
H          2.91130        1.52090        3.53990
H          3.59070       -1.35180        2.46000
H          1.78960       -0.23520        4.67740
H          2.06490       -2.01850        4.19060
H         -0.13610        2.31330        0.68300
H          1.35100        3.27100        0.77640
H          5.56040        0.45930        2.36010
H          5.22180        0.80490        4.10060
H          5.22020        2.14810        2.90430
