19
TSA8_9_F_NH2_Me
C          2.18990        0.32330        0.20380
C          1.50630        1.02970        1.12950
F          2.80110       -0.85870        0.47150
H          2.25650        0.69610       -0.81340
N          0.89130        2.24700        0.74150
C          3.90610        1.06160        3.84190
C          3.49310       -0.05580        3.22750
C          2.02740       -0.37270        3.10570
O          1.36580        0.63850        2.43140
C          5.36150        1.38870        3.96060
H          3.17860        1.75120        4.26220
H          4.21910       -0.74660        2.80770
H          1.60100       -0.45300        4.12770
H          1.86440       -1.34910        2.60350
H          0.36910        2.80250        1.43500
H          0.95890        2.59900       -0.22490
H          5.81090        1.48300        2.94940
H          5.88570        0.59010        4.52600
H          5.48450        2.35190        4.49910
