19
TSA8_9_F_NH2_Me
C          3.11110        0.81630        1.36110
C          1.55140        0.85540        1.31380
F          3.56980       -0.43690        0.98540
H          3.53270        1.54930        0.63910
N          1.10610        2.22500        1.07860
C          3.54450        1.12400        2.79830
C          2.96690        0.05570        3.75160
C          1.68440       -0.57810        3.18200
O          0.90560        0.38020        2.50130
C          5.06290        1.24200        2.94950
H          3.09750        2.10680        3.06780
H          3.67180       -0.78290        3.94640
H          1.09920       -1.02500        4.01180
H          1.91990       -1.41860        2.49020
H          0.06210        2.23810        1.07030
H          1.42160        2.51830        0.12610
H          5.45320        2.03020        2.27120
H          5.56020        0.27940        2.70280
H          5.31820        1.52120        3.99410
