20
TSA8_9_F_Me_CF3
C          2.11550        1.68360        1.44680
C          0.93810        2.45140        0.90030
F          1.82570        0.33260        1.34340
H          3.01790        1.88770        0.82890
C          1.10000        3.35430       -0.28510
C          2.41820        2.03400        2.92440
C          3.53070        1.13830        3.42450
C          3.35040        0.28390        4.43740
O         -0.16040        2.32880        1.42130
C          2.83380        3.50890        3.11860
H          1.49830        1.85140        3.52550
H          4.50630        1.18750        2.94800
H          2.39220        0.20210        4.94160
H          4.17060       -0.34370        4.76950
H          1.83690        4.15040       -0.05140
H          0.13130        3.82960       -0.55000
H          1.45970        2.76660       -1.15520
F          3.96350        3.79910        2.37240
F          1.81440        4.36290        2.73870
F          3.11050        3.74250        4.45470
