20
TSA8_9_F_Me_CF3
C          2.82100        2.13100        1.29140
C          1.47860        1.36710        1.05330
F          3.88010        1.24170        1.19960
H          2.97190        2.89860        0.50130
C          0.44110        2.27780        0.39640
C          2.78620        2.75400        2.69620
C          2.61060        1.63690        3.74970
C          1.87450        0.41830        3.16450
O          0.89090        0.82650        2.24070
C          4.00660        3.63770        3.00300
H          1.88400        3.40270        2.74080
H          3.57270        1.26090        4.16150
H          1.40980       -0.15970        3.98950
H          2.58520       -0.28000        2.66540
H          0.18880        3.13280        1.05820
H         -0.48370        1.69840        0.19240
H          0.82770        2.66390       -0.57010
F          5.17490        2.89680        2.95670
F          4.08960        4.66300        2.07750
F          3.87710        4.19260        4.26410
