17
TSA8_9_F_CN_NO2
C          1.65430       -0.04270        0.06660
C          1.57880       -1.13790        0.86000
F          1.71510       -0.13930       -1.29350
H          1.50430        0.95200        0.47640
C          1.27490       -1.00580        2.26210
C          2.36820       -4.12630       -1.92330
C          1.45600       -3.14580       -1.86710
C          0.73880       -2.84080       -0.59500
O          1.63490       -2.39930        0.36310
N          3.06690       -4.44290       -3.12030
H          2.57740       -4.70490       -1.02740
H          1.21540       -2.55440       -2.74560
H          0.18880       -3.73740       -0.23430
H         -0.03330       -2.07450       -0.78830
N          1.03050       -0.94010        3.39120
O          2.87710       -3.82910       -4.12740
O          3.93710       -5.42820       -3.11720
