19
TSA8_9_NH2_CF3_Cl
C          3.48950       -0.95890        0.01500
C          2.03700       -1.49690        0.07110
N          3.56040        0.33310        0.70840
H          3.78930       -0.73500       -1.03210
C          1.64680       -2.50490       -1.02130
C          4.49240       -1.96550        0.62970
C          3.83140       -2.91900        1.63940
C          2.60340       -2.28320        2.29090
O          1.58260       -1.90480        1.36560
Cl         5.28870       -2.94800       -0.63670
H          5.30800       -1.39080        1.11890
H          3.46830       -3.83840        1.13890
H          2.89500       -1.42450        2.92540
H          2.17430       -3.03850        2.98160
H          3.26850        0.27870        1.70520
H          2.93600        1.02010        0.22570
F          1.91300       -1.96440       -2.26640
F          2.32640       -3.69850       -0.89980
F          0.29020       -2.75840       -0.93860
