23
TSA8_9_CHF2_CBr3_CBr3
C          2.70780       -1.75970       -0.30960
C          1.45240       -2.44130        0.23160
C          2.32890       -0.33750       -0.79200
H          3.40580       -1.60090        0.53940
C          1.22450       -2.65000        1.72430
C          3.48400       -2.54510       -1.43900
C          2.62650       -2.75610       -2.67720
C          2.91970       -2.18380       -3.85000
O          0.56330       -2.74880       -0.54870
C          4.13430       -3.89480       -1.01510
H          4.34530       -1.89490       -1.71300
H          1.75110       -3.39410       -2.62500
H          2.28550       -2.36150       -4.71230
H          3.78540       -1.53860       -3.96130
F          3.45710        0.35540       -1.19490
F          1.42020       -0.37050       -1.83540
H          1.86670        0.23130        0.04100
Br         1.21980       -0.94340        2.64310
Br        -0.49430       -3.49230        2.07530
Br         2.57390       -3.75710        2.55760
Br         5.21690       -4.59270       -2.47460
Br         5.37160       -3.65240        0.46310
Br         2.85350       -5.29130       -0.57170
