24
TSA8_9_CBr3_CHF2_OMe
C          1.40480       -0.96800       -1.51540
C          2.73540       -1.70970       -1.33490
C          1.48210        0.53280       -1.05070
H          0.71350       -1.46140       -0.79670
C          4.00510       -1.40850       -2.09760
C          0.81400       -1.21980       -2.94630
C         -0.66540       -0.89560       -3.03430
C         -1.57760       -1.55450       -2.31210
O          2.77230       -2.61080       -0.50710
O          1.54520       -0.47360       -3.90620
H          0.91700       -2.31440       -3.13890
H         -1.00580       -0.12120       -3.71480
H         -1.29040       -2.34830       -1.62960
H         -2.62950       -1.30380       -2.40710
Br        -0.26680        1.36900       -0.91660
Br         2.21950        0.63130        0.74670
Br         2.56010        1.70300       -2.17330
F          5.03010       -2.23470       -1.66550
F          3.82810       -1.61970       -3.44900
H          4.32670       -0.36690       -1.92040
C          1.30170       -0.93300       -5.22190
H          1.26600       -2.04240       -5.30140
H          2.14460       -0.60660       -5.86430
H          0.37390       -0.47670       -5.62730
