24
TSA8_9_CBr3_CHF2_OMe
C          1.40430        0.05380       -0.63580
C          1.99720       -1.09580       -1.06160
C          2.09740        1.34850       -0.26280
H          0.32850        0.06350       -0.53180
C          3.48620       -1.25690       -1.23070
C         -0.15950       -2.50560       -4.42680
C          0.13100       -1.72000       -3.37310
C          0.00320       -2.21890       -1.95740
O          1.25470       -2.19970       -1.36670
O         -0.00380       -2.11000       -5.72130
H         -0.52410       -3.51240       -4.25500
H          0.49580       -0.70820       -3.51780
H         -0.36590       -3.26670       -1.94900
H         -0.73260       -1.61560       -1.38950
Br         0.77180        2.64270        0.31540
Br         3.32420        1.10970        1.22610
Br         3.01430        2.12070       -1.79000
F          3.93000       -2.28300       -0.41870
F          3.75010       -1.58040       -2.54920
H          4.06460       -0.35030       -0.98830
C          0.55160       -0.91970       -6.14130
H          0.56160       -0.89530       -7.25070
H          1.59820       -0.83840       -5.77630
H         -0.04820       -0.06170       -5.77210
