24
TSA8_9_CBr3_CHF2_OMe
C          1.28440       -0.39560       -1.88570
C          1.78250       -1.63480       -1.03170
C          2.19410        0.87730       -1.82520
H          0.32980       -0.07040       -1.41580
C          3.27450       -1.98800       -1.12320
C          0.93900       -0.90020       -3.31190
C         -0.09660       -2.04490       -3.22330
C         -0.21240       -2.63590       -1.81260
O          1.06010       -2.84960       -1.24940
O          0.41410        0.13810       -4.11690
H          1.88980       -1.30530       -3.72750
H         -1.11480       -1.71020       -3.51900
H         -0.75610       -3.60140       -1.87630
H         -0.81800       -1.98570       -1.14210
Br         1.26300        2.44580       -2.50130
Br         2.63070        1.31740        0.01850
Br         3.84060        0.74050       -2.85780
F          3.55220       -3.01050       -0.23450
F          3.60780       -2.40900       -2.39710
H          3.90800       -1.13040       -0.83320
C          0.68750       -0.10250       -5.48190
H          0.51220       -1.16420       -5.77370
H          1.72550        0.20890       -5.72660
H         -0.01260        0.50530       -6.09220
