21
TSA8_9_OMe_CHF2_Br
C          0.83070       -0.40710       -1.38800
C          1.64780       -1.31340       -0.49080
O          1.68190        0.55950       -1.98270
H          0.00970        0.07410       -0.80100
C          1.32140       -1.43200        0.97130
C          0.14920       -1.21630       -2.50870
C         -0.80610       -2.23640       -1.94110
C         -0.65850       -3.54590       -2.16060
O          2.58370       -1.94520       -0.95940
Br        -0.85990       -0.03050       -3.67000
H          0.93110       -1.70870       -3.12960
H         -1.64000       -1.89490       -1.33420
H          0.16210       -3.92710       -2.76030
H         -1.36670       -4.24900       -1.73440
C          1.83380        1.67640       -1.13320
H          2.51020        2.40240       -1.62910
H          2.30990        1.39030       -0.17010
H          0.86380        2.19650       -0.97150
F          0.03390       -1.91110        1.12510
F          2.20140       -2.29570        1.60010
H          1.39750       -0.43340        1.44950
