21
TSA8_9_OMe_CHF2_Br
C          0.92590       -0.57320       -1.42590
C          1.53120       -1.75900       -0.61770
O          1.86670        0.48850       -1.45210
H         -0.06880       -0.28790       -0.99890
C          1.51670       -1.53870        0.89560
C          0.67050       -1.08300       -2.84770
C         -0.31570       -2.26500       -2.81510
C         -0.26190       -3.01080       -1.46990
O          1.05830       -3.06100       -0.97410
Br         0.01550        0.30370       -4.04140
H          1.64000       -1.45010       -3.25160
H         -1.37130       -1.94770       -2.96010
H         -0.65910       -4.03810       -1.60490
H         -0.92320       -2.51950       -0.72050
C          1.32070        1.66250       -0.89200
H          0.47450        2.03990       -1.50670
H          2.10500        2.44660       -0.89080
H          1.01570        1.50240        0.16530
F          0.21790       -1.51630        1.37040
F          2.20970       -2.55990        1.51790
H          2.00970       -0.57640        1.14330
