20
TSA8_9_Me_CHF2_F
C          2.66850       -1.22320        0.70930
C          1.41600       -1.18430        1.56170
C          2.32810       -0.85470       -0.74000
H          3.36990       -0.43860        1.07230
C          1.29590       -0.19590        2.68730
C          3.42180       -2.57360        0.86270
C          2.64830       -3.81160        0.46490
C          2.32670       -4.10500       -0.79840
O          0.49330       -1.95260        1.32940
F          3.77750       -2.70740        2.19520
H          4.36540       -2.54360        0.27560
H          2.36780       -4.51760        1.24150
H          1.78360       -5.01840       -1.01810
H          2.61220       -3.46360       -1.62360
H          1.56990       -1.53720       -1.17170
H          3.24580       -0.86890       -1.36570
H          1.90240        0.17130       -0.77240
F          0.07100       -0.32090        3.32000
F          2.30310       -0.41460        3.60880
H          1.38690        0.83420        2.28420
