20
TSA8_9_Me_CHF2_F
C          2.77770       -1.15550        0.36440
C          1.36200       -1.22100        0.98280
C          2.66740       -0.87670       -1.14630
H          3.33870       -0.27660        0.75330
C          1.29470       -0.94150        2.49030
C          3.57640       -2.44330        0.67310
C          2.67410       -3.67330        0.86640
C          1.31960       -3.50360        0.17750
O          0.58070       -2.36280        0.61640
F          4.30610       -2.27390        1.83880
H          4.31330       -2.62050       -0.13930
H          2.45570       -3.82130        1.94340
H          0.72090       -4.40840        0.41230
H          1.43460       -3.49780       -0.92180
H          2.13170       -1.65760       -1.71120
H          3.68270       -0.77470       -1.58580
H          2.13140        0.08310       -1.30850
F         -0.02850       -0.84270        2.87810
F          1.90630       -1.92880        3.23510
H          1.79360        0.02640        2.70570
