19
TSA8_9_CH2F_I_NH2
C          1.58340        0.20430       -2.15280
C          1.28650       -0.87960       -1.13980
C          1.37330        1.58990       -1.51440
H          2.65920        0.12620       -2.42380
I          2.80670       -2.21080       -0.52980
C          0.76950       -0.02100       -3.46110
C         -0.73170        0.02440       -3.24430
C         -1.51090       -1.03490       -3.48640
O          0.17240       -0.99530       -0.65260
N          1.15290        0.95130       -4.48850
H          1.05690       -1.02950       -3.83810
H         -1.19190        0.94000       -2.88620
H         -1.09360       -1.97030       -3.84700
H         -2.58160       -0.97060       -3.32190
F          2.16980        1.71670       -0.38920
H          0.31460        1.73810       -1.21700
H          1.66160        2.39460       -2.22060
H          0.80350        1.90560       -4.24390
H          0.71040        0.68120       -5.39710
