21
TSA8_9_CF3_OMe_H
C          3.12440        0.27230        1.51900
C          1.86660        1.04130        1.98210
C          2.82970       -0.74290        0.39420
H          3.82770        1.04510        1.14330
O          1.18910        1.68730        0.94060
C          3.77290       -0.43810        2.74500
C          3.15290        0.05980        4.05180
C          1.62110       -0.18450        3.96160
O          0.99930        0.22570        2.73790
H          4.87710       -0.31580        2.72910
H          3.56910       -1.53180        2.71980
H          3.36250        1.14660        4.16920
H          1.11410        0.29570        4.82420
H          1.46760       -1.28040        4.04290
F          3.99720       -1.38330        0.01980
F          1.91620       -1.69360        0.82540
F          2.30990       -0.09900       -0.71430
C          1.38370        3.06980        1.12200
H          0.89460        3.60490        0.28260
H          2.46380        3.33900        1.08970
H          0.90490        3.42220        2.06270
