26
TSA8_9_Et_CHF2_CF3
C          1.99710        0.61810       -1.77000
C          0.78820       -0.10710       -2.33600
C          1.70130        0.85360       -0.26000
H          2.87260       -0.06550       -1.83810
C          0.90910       -1.52400       -2.82740
C          2.28990        1.91640       -2.60760
C          3.49730        2.66500       -2.09020
C          3.41650        3.93390       -1.67270
O         -0.29810        0.45480       -2.36940
C          2.55260        1.61730       -4.10570
H          1.39540        2.57760       -2.55180
H          4.46130        2.16480       -2.06740
H          2.47330        4.47220       -1.68430
H          4.30370        4.44380       -1.31260
C          2.90170        1.24980        0.60410
H          1.35670       -0.11570        0.16660
H          0.87930        1.59150       -0.13340
H          3.71630        0.50270        0.49450
H          2.58800        1.27060        1.66930
H          3.28650        2.25570        0.37460
F         -0.31340       -1.99100       -3.27840
F          1.82620       -1.59400       -3.85880
H          1.25270       -2.17120       -1.99360
F          3.63130        0.76030       -4.24740
F          1.44560        1.05080       -4.70970
F          2.83260        2.79630       -4.77630
