20
TSA8_9_CCl3_Cl_CH2F
C          2.49630       -1.66340       -0.54970
C          1.48400       -1.31300        0.52770
C          2.69940       -0.44060       -1.51290
H          3.46970       -1.79630       -0.02700
Cl         1.98820       -1.21240        2.20820
C          2.13000       -3.08180       -1.13120
C          0.80160       -3.13500       -1.85850
C         -0.23610       -3.83900       -1.39450
O          0.31450       -1.09860        0.24820
C          3.20790       -3.73370       -2.01390
H          2.07390       -3.73960       -0.23180
H          0.68050       -2.60320       -2.79430
H         -0.16900       -4.39720       -0.46570
H         -1.16790       -3.85780       -1.95000
Cl         1.25570       -0.02310       -2.47740
Cl         3.10780        1.01330       -0.55260
Cl         4.08240       -0.64480       -2.61660
F          3.26760       -3.17040       -3.27380
H          2.95240       -4.80630       -2.15680
H          4.20100       -3.68660       -1.51900
