20
TSA8_9_CCl3_Cl_CH2F
C          1.93560       -0.22280        0.00090
C          1.48400       -1.27250        0.74980
C          1.86080        0.26830       -1.44240
H          2.51330        0.49100        0.58530
Cl         1.90170       -1.21150        2.45960
C          1.82710       -4.79030       -1.72950
C          1.63700       -3.48520       -1.48380
C          0.40700       -2.98690       -0.76600
O          0.75260       -2.37680        0.41570
C          3.05510       -5.27850       -2.43470
H          1.08780       -5.52160       -1.41400
H          2.38980       -2.77050       -1.80140
H         -0.24580       -3.84860       -0.50980
H         -0.23490       -2.33230       -1.37080
Cl         0.92070       -0.58660       -2.67630
Cl         1.19100        1.91860       -1.39660
Cl         3.52700        0.38320       -2.05820
F          3.12370       -4.72630       -3.70180
H          3.01790       -6.38430       -2.52600
H          3.96130       -4.99670       -1.85870
