20
TSA8_9_CCl3_Cl_CH2F
C          2.28510       -1.95010       -0.50800
C          1.00830       -1.72420        0.36480
C          2.46610       -0.75510       -1.50240
H          3.17680       -1.93980        0.15820
Cl         1.35210       -0.96260        1.94270
C          2.20850       -3.40660       -1.09010
C          0.81610       -3.75480       -1.64700
C         -0.29730       -3.20940       -0.73730
O          0.22300       -2.88860        0.53700
C          3.31920       -3.85710       -2.04670
H          2.31850       -4.05590       -0.19050
H          0.63120       -3.44760       -2.69790
H         -1.09990       -3.96940       -0.64520
H         -0.78260       -2.31550       -1.19850
Cl         1.18500       -0.68510       -2.74200
Cl         2.44150        0.80670       -0.63330
Cl         4.05500       -0.78620       -2.31550
F          3.18860       -3.26440       -3.28960
H          3.24580       -4.95570       -2.19700
H          4.31790       -3.63670       -1.61460
