23
TSA8_9_CH2F_CF3_CHF2
C          1.92660       -0.05090       -0.11330
C          1.53330       -0.67320       -1.26610
C          1.91900        1.40580        0.26860
H          2.30160       -0.66980        0.69520
C          1.62310       -2.18220       -1.36070
C          2.77250        2.17210       -4.27220
C          2.35780        1.77500       -3.05980
C          0.97170        1.22260       -2.83500
O          1.03750       -0.08450       -2.39870
C          4.15650        2.70930       -4.48260
H          2.10660        2.10730       -5.12830
H          3.04260        1.84620       -2.22170
H          0.41320        1.22070       -3.79550
H          0.36110        1.84120       -2.15250
F          3.20820        1.79490        0.57950
H          1.28810        1.52300        1.17410
H          1.52830        2.10450       -0.47290
F          0.36100       -2.69310       -1.60080
F          2.44800       -2.51670       -2.41850
F          2.12310       -2.77530       -0.21290
F          4.34750        3.84040       -3.71010
F          5.09210        1.75110       -4.13670
H          4.29300        2.97570       -5.55160
