23
TSA8_9_CH2F_CF3_CHF2
C          2.63600        0.56510       -1.58940
C          1.32140       -0.29250       -1.60690
C          2.56930        1.53800       -0.39750
H          3.51240       -0.09540       -1.40400
C          1.59230       -1.79440       -1.48860
C          2.80260        1.23260       -2.98380
C          1.54420        2.03740       -3.36100
C          0.27270        1.33740       -2.85750
O          0.49860       -0.05020       -2.74560
C          4.08400        2.05260       -3.21050
H          2.85750        0.38130       -3.70000
H          1.53900        3.08150       -2.97950
H         -0.56190        1.53950       -3.55980
H         -0.05480        1.75200       -1.87560
F          3.77360        2.18900       -0.21230
H          2.36940        0.96070        0.53060
H          1.75920        2.28500       -0.51800
F          0.39100       -2.47760       -1.44640
F          2.32510       -2.23460       -2.57660
F          2.29330       -2.05910       -0.32580
F          4.09220        3.21580       -2.46380
F          5.19960        1.29470       -2.90350
H          4.14150        2.34240       -4.28140
