16
TSA8_9_H_H_NH2
C          0.94780        0.08420        1.29250
C          1.56460        0.96240        0.24080
H          1.73600       -0.58850        1.69470
H          0.15840       -0.54390        0.82420
H          1.19460        0.92860       -0.77830
C          0.34230        0.90670        2.44350
C         -0.76570        1.80320        1.93290
C         -0.69990        3.13420        2.02840
O          2.48600        1.71280        0.52200
N         -0.17900        0.00610        3.47190
H          1.15690        1.51430        2.89950
H         -1.63920        1.35100        1.47130
H          0.15850        3.62410        2.47780
H         -1.51180        3.74530        1.64760
H         -0.96590       -0.56690        3.08690
H         -0.53810        0.56750        4.27820
