16
TSA8_9_H_H_NH2
C          2.22490        0.18030       -0.23340
C          1.30500        1.11240        0.00710
H          2.76110       -0.29010        0.58510
H          2.44380       -0.12030       -1.25320
H          0.77680        1.56610       -0.82790
C         -0.51910        1.22770        3.74860
C         -0.92320        1.71450        2.56660
C          0.04220        2.37480        1.62780
O          1.03440        1.47850        1.28160
N         -1.43190        0.60250        4.63170
H          0.52480        1.30820        4.04030
H         -1.96750        1.63580        2.27570
H          0.50180        3.25330        2.12880
H         -0.51200        2.73510        0.73190
H         -2.42890        0.50530        4.38830
H         -1.09970        0.23460        5.53520
