23
TSA8_9_Me_CH2F_Me
C          1.86130        0.15850       -0.12670
C          1.46900        1.39880       -0.53830
C          2.13110       -0.37360        1.25480
H          2.00300       -0.59940       -0.89250
C          1.25690        1.62120       -2.01330
C          3.82000        3.59360        1.07390
C          3.01460        2.79330        1.78650
C          1.52730        2.79370        1.55540
O          1.24040        2.50220        0.23710
C          5.30130        3.59540        1.28880
H          3.40070        4.25420        0.31920
H          3.43560        2.13490        2.54100
H          1.14930        3.81520        1.76960
H          0.97610        2.12200        2.24020
H          1.98920        0.31910        2.08550
H          3.17940       -0.73540        1.29900
H          1.45590       -1.23560        1.43710
F         -0.04530        2.02570       -2.23810
H          1.45440        0.71310       -2.62240
H          1.94560        2.42040       -2.35900
H          5.71340        2.58480        1.08510
H          5.53230        3.88590        2.33520
H          5.77730        4.32330        0.59890
