23
TSA8_9_Me_CH2F_Me
C          2.80700        1.32720        0.15900
C          1.32040        1.62270       -0.24330
C          2.86230        0.13080        1.12550
H          3.39000        1.01720       -0.73770
C          1.16330        1.70280       -1.76110
C          3.42520        2.62150        0.73510
C          2.59120        3.13750        1.92340
C          1.09250        2.87390        1.70150
O          0.80360        2.82830        0.32230
C          4.90920        2.50800        1.09690
H          3.34460        3.38390       -0.07230
H          2.87640        2.69360        2.90230
H          0.50390        3.67550        2.19300
H          0.76440        1.92700        2.18590
H          2.32980        0.32700        2.07600
H          3.91320       -0.13140        1.36330
H          2.39860       -0.75660        0.64450
F         -0.16700        1.89980       -2.08360
H          1.50340        0.75480       -2.22890
H          1.76460        2.54530       -2.16540
H          5.06850        1.78490        1.92300
H          5.29340        3.49790        1.42320
H          5.49220        2.18070        0.21000
