25
TSA8_9_Et_CH2F_NH2
C          2.55410        1.50180        0.48470
C          1.16300        1.79920       -0.18000
C          2.44750        0.16810        1.27210
H          3.31580        1.33690       -0.31060
C          1.28980        2.00330       -1.68880
C          2.95370        2.74700        1.31690
C          1.86950        3.07430        2.35780
C          0.46720        2.80950        1.78550
O          0.48600        2.92430        0.38000
N          4.26680        2.63520        1.94430
H          2.98600        3.60200        0.60270
H          1.97230        2.50770        3.30870
H         -0.25140        3.53290        2.22300
H          0.08970        1.80280        2.07700
C          3.78570       -0.38160        1.76970
H          2.03650       -0.59950        0.57980
H          1.74960        0.25480        2.12910
H          4.48630       -0.51220        0.91770
H          3.61940       -1.37290        2.24110
H          4.24470        0.27130        2.53500
F          0.03620        2.18240       -2.24320
H          1.75720        1.10890       -2.15270
H          1.91610        2.89540       -1.90410
H          4.98820        2.49020        1.20200
H          4.49220        3.53200        2.43230
