22
TSA8_9_Cl_Et_NH2
C          2.90930       -1.69360       -1.70030
C          1.37910       -1.42220       -1.50530
Cl         3.86180       -0.25480       -1.21150
H          3.24840       -2.51120       -1.02660
C          0.67550       -2.69430       -1.00250
C          3.14680       -2.06920       -3.17200
C          2.68380       -0.92750       -4.10060
C          1.53010       -0.13240       -3.46580
O          0.71100       -0.98100       -2.69420
N          4.53430       -2.45020       -3.43330
H          2.50190       -2.95210       -3.37780
H          3.48930       -0.20040       -4.34230
H          0.93490        0.35210       -4.26670
H          1.90730        0.69990       -2.83040
C         -0.81380       -2.46350       -0.75990
H          1.13870       -3.00940       -0.04220
H          0.79650       -3.51500       -1.74170
H         -0.96310       -1.65570       -0.01290
H         -1.27420       -3.39810       -0.37560
H         -1.32590       -2.18790       -1.70620
H          5.16880       -1.63140       -3.30010
H          4.61790       -2.77720       -4.42260
