26
TSA8_9_CBr3_CBr3_Et
C          2.86410       -0.03040       -1.86870
C          1.52720       -0.65790       -2.30360
C          2.70600        0.79680       -0.53380
H          3.55880       -0.85580       -1.61580
C          1.28300       -2.16890       -2.41650
C          3.55290        0.82050       -3.01670
C          2.68760        1.95920       -3.52110
C          3.06820        3.23790       -3.41780
O          0.59480        0.09060       -2.55380
C          3.99090       -0.00250       -4.24810
H          4.49290        1.25140       -2.61310
H          1.73930        1.74230       -4.00110
H          2.42760        4.02610       -3.79930
H          4.01210        3.51000       -2.95540
Br         2.05980       -0.28650        0.93690
Br         4.41930        1.48250        0.08350
Br         1.47640        2.30570       -0.62400
Br         1.63630       -3.12300       -0.77070
Br        -0.56880       -2.54730       -2.88480
Br         2.35150       -3.01300       -3.78820
C          5.11780       -0.99560       -3.94400
H          4.39960        0.69500       -5.01380
H          3.11820       -0.51000       -4.70440
H          6.00730       -0.45520       -3.55620
H          5.40650       -1.52030       -4.87910
H          4.81950       -1.75820       -3.20120
