26
TSA8_9_CBr3_CBr3_Et
C          2.94720       -0.03600       -1.95320
C          1.39300       -0.16550       -1.98480
C          3.40310        0.53180       -0.56390
H          3.36170       -1.06330       -1.98510
C          0.73020       -1.47270       -2.49980
C          3.49520        0.77820       -3.18120
C          2.35160        1.33970       -4.04110
C          1.24550        1.92810       -3.17430
O          0.65250        1.02350       -2.24770
C          4.42120       -0.03130       -4.12750
H          4.06040        1.65900       -2.80590
H          1.90520        0.57170       -4.69190
H          0.45070        2.29720       -3.85520
H          1.63990        2.80880       -2.63280
Br         2.75880       -0.59960        0.87980
Br         5.33290        0.56840       -0.36960
Br         2.77890        2.32950       -0.17520
Br         1.36410       -2.99810       -1.48260
Br        -1.18600       -1.38500       -2.21140
Br         1.02200       -1.88550       -4.36880
C          5.71810       -0.52540       -3.49290
H          4.70860        0.62030       -4.98260
H          3.87060       -0.90700       -4.53330
H          6.31540        0.33370       -3.12350
H          6.31780       -1.06140       -4.25880
H          5.51950       -1.23520       -2.66540
