21
TSA8_9_Me_CH2F_CN
C          1.63960       -0.10010        0.00220
C          1.42630       -1.45330        0.02880
C          1.73280        0.93320       -1.09520
H          1.78890        0.36920        0.96800
C          1.58740       -2.11180        1.37410
C          1.55450       -2.20370       -4.56630
C          1.65370       -2.46160       -3.26600
C          0.63210       -2.01970       -2.26970
O          1.12450       -2.29350       -1.01090
C          2.61080       -2.66150       -5.43290
H          0.70590       -1.64770       -4.97390
H          2.52180       -3.01070       -2.90610
H         -0.33290       -2.55420       -2.44910
H          0.38850       -0.96550       -2.36450
H          1.53650        0.66530       -2.14280
H          2.79810        1.21560       -1.05700
H          1.18120        1.87250       -0.84540
F          2.14250       -3.37290        1.23810
H          0.59290       -2.19090        1.84910
H          2.28360       -1.52400        2.01950
N          3.44830       -3.01950       -6.14610
