19
TSA8_9_CN_OH_CCl3
C          2.89270       -0.36880       -1.58120
C          1.51160       -1.00050       -1.25180
C          2.74690        1.00920       -1.08480
H          3.70320       -0.85590       -0.99750
O          1.59820       -2.03310       -0.30810
C          3.10600       -0.52390       -3.13510
C          1.94660        0.20280       -3.81080
C          0.60770       -0.31020       -3.27790
O          0.76060       -1.40640       -2.38890
C          4.42390       -0.21340       -3.90690
H          2.99660       -1.61570       -3.31780
H          2.03870        1.30530       -3.66200
H          0.06540       -0.66370       -4.17640
H          0.01170        0.50770       -2.81890
N          2.60180        2.09860       -0.71920
H          2.03480       -2.79780       -0.76430
Cl         4.17140       -0.67520       -5.62930
Cl         4.91560        1.49870       -3.88900
Cl         5.78300       -1.21700       -3.34080
