20
TSA8_9_Me_Cl_Me
C          1.41540       -0.23550        2.33400
C          1.08460        0.79860        1.28060
C          1.39300       -1.63860        1.70230
H          2.45750       -0.04290        2.67310
Cl         2.27250        2.01490        0.83830
C          0.48860       -0.08020        3.57830
C         -0.96990       -0.33300        3.25570
C         -1.90000        0.61700        3.39450
O          0.00050        0.79670        0.71810
C          0.91190       -1.00040        4.73150
H          0.61520        0.96440        3.94520
H         -1.27660       -1.31410        2.90590
H         -1.64090        1.61210        3.74320
H         -2.93600        0.40010        3.15620
H          1.71680       -2.40970        2.42970
H          2.10130       -1.67490        0.84680
H          0.38170       -1.89740        1.32540
H          0.78990       -2.07110        4.46680
H          0.28440       -0.79680        5.62580
H          1.97220       -0.81240        5.00370
