20
TSA8_9_Me_Cl_Me
C          1.81220       -0.00040        0.04800
C          1.07270        0.63820        0.96760
C          2.20250       -1.44740        0.15790
H          2.14910        0.54410       -0.82970
Cl         0.68180        2.33980        0.69550
C         -0.13430       -0.21730        5.39240
C         -0.45050       -0.45740        4.11170
C         -0.18550        0.54830        3.02930
O          0.63650       -0.01450        2.07710
C         -0.40980       -1.23170        6.45880
H          0.32680        0.72460        5.67720
H         -0.91540       -1.40100        3.83770
H          0.29270        1.46250        3.44620
H         -1.15440        0.83020        2.56360
H          1.81390       -1.92630        1.08080
H          3.30900       -1.52810        0.15760
H          1.80070       -1.99750       -0.71830
H          0.14560       -2.16870        6.24310
H         -1.49780       -1.44940        6.50320
H         -0.08220       -0.83820        7.44390
