17
TSA8_9_CBr3_Br_Cl
C          1.67720       -1.44870       -1.00350
C          0.69790       -1.35720        0.18940
C          1.65440       -0.10460       -1.81770
H          2.71100       -1.51310       -0.59840
Br         1.13540       -2.52280        1.69530
C          1.37760       -2.79700       -1.72830
C         -0.10330       -2.94120       -2.06730
C         -0.93300       -2.71030       -0.79780
O         -0.66310       -1.44680       -0.20930
Cl         2.38240       -3.15000       -3.15830
H          1.60810       -3.61440       -1.01010
H         -0.40230       -2.24430       -2.86990
H         -0.76960       -3.53180       -0.06790
H         -2.00720       -2.75250       -1.07220
Br         2.10180        1.36010       -0.61600
Br         3.01900       -0.02460       -3.19710
Br        -0.03810        0.38960       -2.63870
