16
TSA8_9_OH_H_CN
C          2.44870       -1.64550        0.75680
C          1.28980       -0.79020        1.36090
O          2.30240       -1.81480       -0.63790
H          3.40590       -1.10370        0.92260
H          1.73760       -0.01670        2.02080
C          2.45890       -3.00380        1.47210
C          1.11170       -3.68550        1.22620
C         -0.04490       -2.70260        1.48970
O          0.39510       -1.54540        2.17470
C          3.57060       -3.88350        1.08800
H          2.56450       -2.81700        2.56260
H          1.01990       -4.05600        0.17760
H         -0.78780       -3.23510        2.11880
H         -0.56990       -2.41430        0.55150
H          1.35920       -1.64050       -0.89640
N          4.43550       -4.59990        0.80840
