21
TSA8_9_OMe_NO2_OH
C          1.42720        0.12740        0.08680
C          1.12030       -1.14240        0.39500
O          1.51060        0.49920       -1.21280
H          1.58790        0.86500        0.86870
N          1.00590       -1.55550        1.76300
C         -0.80640       -3.83120       -2.89330
C         -0.78870       -2.89710       -1.93190
C          0.02850       -3.05270       -0.68300
O          0.92970       -2.00890       -0.63740
O         -1.53370       -3.66010       -4.01950
H         -0.22860       -4.74340       -2.78170
H         -1.37050       -1.98750       -2.05470
H          0.58340       -4.01560       -0.68260
H         -0.66890       -3.03470        0.18150
C          1.70000        1.80530       -1.59840
H          1.73450        1.85430       -2.70620
H          2.65580        2.19350       -1.18780
H          0.85380        2.43070       -1.24090
O          0.84560       -2.70610        2.03750
O          1.16390       -0.68650        2.73960
H         -2.05490       -2.86080       -4.18420
