20
TSA8_9_Br_I_Et
C          3.20530        0.93370        1.47950
C          1.73970        0.89580        1.12850
Br         4.15260       -0.12590        0.14160
H          3.53890        1.98890        1.38280
I          0.72330        2.67540        0.61970
C          3.43810        0.48800        2.95270
C          3.13940       -0.98480        3.15400
C          2.15780       -1.40580        3.95780
O          1.12370       -0.15840        1.12500
C          4.83600        0.85110        3.52060
H          2.73260        1.09190        3.56980
H          3.73570       -1.72750        2.63350
H          1.53300       -0.70300        4.50020
H          1.97380       -2.46850        4.07670
C          6.04390        0.16280        2.88230
H          4.83810        0.58980        4.60210
H          4.98240        1.95070        3.44510
H          5.95740       -0.94110        2.94870
H          6.96240        0.47000        3.42560
H          6.17460        0.47470        1.83010
