17
TSA8_9_NO2_Cl_OH
C          1.66220       -1.99970       -0.05940
C          1.13920       -1.10380        1.04050
N          1.50490       -1.33170       -1.34620
H          2.75240       -2.13470        0.12090
Cl         2.21350       -0.56630        2.32210
C          1.06740       -3.44350       -0.04290
C         -0.42890       -3.54900       -0.26880
C         -1.33470       -3.19440        0.64740
O         -0.00490       -0.67990        1.01380
O          1.72520       -4.18530       -1.03990
H          1.30620       -3.90070        0.94710
H         -0.78790       -3.98210       -1.19850
H         -1.04000       -2.80700        1.61590
H         -2.39230       -3.31690        0.43850
O          2.01710       -0.26760       -1.52470
O          0.82940       -1.88770       -2.33060
H          1.63580       -5.14470       -0.79770
