17
TSA8_9_NO2_Cl_OH
C          1.95410       -0.08510        0.01430
C          1.20400       -0.97810        0.68440
N          2.33740       -0.23960       -1.35060
H          2.28300        0.80750        0.54150
Cl         0.80730       -0.63470        2.37260
C          0.00150       -5.43050        0.02010
C         -0.32040       -4.16260       -0.27840
C         -0.06650       -3.03540        0.67940
O          0.76390       -2.11240        0.08080
O         -0.23120       -6.43650       -0.85160
H          0.45820       -5.66920        0.97570
H         -0.77910       -3.93370       -1.23640
H          0.40290       -3.41040        1.61610
H         -1.03710       -2.55590        0.93070
O          3.00080        0.60550       -1.86980
O          1.96840       -1.28830       -2.05520
H         -0.63390       -6.28900       -1.72000
