17
TSA8_9_NO2_Cl_OH
C          1.78380       -2.10470       -0.16600
C          1.09880       -1.29330        0.95160
N          1.68440       -1.37260       -1.42450
H          2.86590       -2.21120        0.06890
Cl         1.55930       -1.79780        2.61110
C          1.14060       -3.51230       -0.20860
C         -0.38600       -3.39010       -0.32170
C         -0.90050       -2.49850        0.81370
O         -0.30840       -1.20830        0.77270
O          1.66900       -4.26830       -1.26590
H          1.37930       -4.02060        0.75460
H         -0.68740       -2.95080       -1.29410
H         -0.74230       -2.98310        1.80140
H         -1.99850       -2.38660        0.69560
O          2.16480       -0.28290       -1.50460
O          1.13930       -1.90710       -2.49710
H          1.36120       -5.20250       -1.12910
