26
TSA8_9_Br_Et_Et
C          1.94870       -0.17050        0.08750
C          1.48000       -1.37900        0.49230
Br         2.26820        0.45150       -1.70050
H          2.16320        0.58650        0.83590
C          1.27250       -1.61590        1.97030
C          3.66300       -3.72070       -1.13250
C          2.96810       -2.79700       -1.82050
C          1.47870       -2.66380       -1.64910
O          1.16200       -2.42800       -0.32570
C          5.16030       -3.92810       -1.21770
H          3.12530       -4.37370       -0.44990
H          3.46060       -2.12440       -2.51300
H          1.00690       -3.62230       -1.95170
H          1.05320       -1.87870       -2.30300
C          2.12040       -2.79260        2.44690
H          0.20040       -1.84100        2.15070
H          1.54140       -0.72120        2.57400
H          1.83960       -3.71950        1.90430
H          1.95340       -2.95600        3.53240
H          3.19840       -2.58320        2.27770
C          5.90080       -2.98790       -2.17000
H          5.34720       -4.97450       -1.53960
H          5.58380       -3.79490       -0.19900
H          5.53170       -3.11910       -3.20950
H          6.98610       -3.22330       -2.15190
H          5.76690       -1.93140       -1.85370
