26
TSA8_9_Br_Et_Et
C          3.13740       -1.53750       -0.16950
C          1.63580       -1.54770        0.26780
Br         3.33970       -0.10710       -1.48080
H          3.79040       -1.26490        0.68730
C          1.43640       -1.51980        1.79230
C          3.49720       -2.94320       -0.70620
C          2.57010       -3.32250       -1.87810
C          1.16220       -2.73360       -1.67540
O          0.87330       -2.61550       -0.29870
C          4.99390       -3.23710       -0.97250
H          3.23120       -3.64250        0.11640
H          2.92830       -2.99720       -2.87640
H          0.41500       -3.38440       -2.17370
H          1.06880       -1.73800       -2.16710
C          1.95750       -2.77230        2.49770
H          0.34910       -1.42270        1.99890
H          1.94400       -0.62500        2.21220
H          1.44930       -3.67900        2.10670
H          1.75360       -2.69390        3.58610
H          3.05360       -2.87610        2.36090
C          5.66950       -2.43140       -2.08250
H          5.08530       -4.31410       -1.23490
H          5.56240       -3.07140       -0.03150
H          5.15720       -2.57230       -3.05520
H          6.71740       -2.78190       -2.19340
H          5.71580       -1.35710       -1.82660
