20
TSA8_9_F_CCl3_Me
C          2.16940       -0.60830        1.98900
C          1.04210        0.15580        2.64850
F          1.73840       -1.00440        0.73320
H          3.05000        0.05740        1.85430
C          1.18470        1.62360        2.99750
C          2.58930       -1.85880        2.79590
C          3.66970       -2.60120        2.04380
C          3.50060       -3.85660        1.61600
O         -0.01110       -0.42490        2.87000
C          3.11450       -1.50080        4.19160
H          1.69840       -2.51530        2.92060
H          4.61310       -2.10060        1.84310
H          2.57350       -4.39220        1.79470
H          4.29870       -4.35770        1.07820
Cl         2.52510        1.87570        4.14330
Cl         1.51160        2.56260        1.51860
Cl        -0.30440        2.27290        3.74290
H          4.00290       -0.83670        4.11930
H          3.40430       -2.42510        4.73630
H          2.32820       -0.99180        4.78670
