20
TSA8_9_CBr3_CF3_Cl
C          0.84710       -0.91890        1.14100
C          2.02010       -1.88620        1.43230
C          0.61320       -0.65450       -0.39350
H          1.09540        0.07490        1.57260
C          3.44640       -1.63120        1.00630
C         -0.46380       -1.37040        1.89410
C         -0.39860       -1.36620        3.41450
C          0.65170       -0.99360        4.15970
O          1.81440       -2.89320        2.09640
Cl        -1.04870       -2.98060        1.37080
H         -1.27850       -0.65610        1.67310
H         -1.29580       -1.67730        3.94280
H          1.58510       -0.64970        3.73330
H          0.57610       -1.02480        5.24180
Br        -0.99930        0.37930       -0.75170
Br         2.00390        0.47510       -1.15230
Br         0.50880       -2.28150       -1.45620
F          3.84320       -0.37540        1.42690
F          4.28900       -2.57000        1.57830
F          3.58040       -1.73910       -0.36200
