20
TSA8_9_CBr3_CF3_Cl
C          1.40690       -0.55190        0.12200
C          2.01970       -1.21320        1.15140
C          1.98330       -0.10630       -1.21460
H          0.36290       -0.30010        0.24960
C          3.47600       -1.63750        1.15440
C         -1.61070       -1.83050        4.35720
C         -0.35920       -1.87430        3.89240
C         -0.02520       -1.35860        2.52530
O          1.32290       -1.54320        2.28100
Cl        -1.98530       -2.43930        5.96150
H         -2.41320       -1.42110        3.75050
H          0.42860       -2.29140        4.51560
H         -0.27840       -0.27670        2.47670
H         -0.61860       -1.92100        1.77100
Br         0.59400        0.80230       -2.22270
Br         3.42450        1.17790       -1.03850
Br         2.54260       -1.59660       -2.32100
F          4.31310       -0.54660        1.06930
F          3.76620       -2.29120        2.34000
F          3.74090       -2.51410        0.12400
