24
TSA8_9_Et_Br_OMe
C          1.80650        0.05820        0.26010
C          1.35060       -0.16210        1.52050
C          1.89510       -0.86630       -0.93110
H          2.15490        1.06620        0.05040
Br         1.39330        1.33940        2.70760
C          2.47270       -4.29930        2.29680
C          2.14370       -3.22740        1.54940
C          0.76830       -2.60970        1.61410
O          0.83720       -1.30710        2.06310
O          3.70170       -4.88490        2.27020
H          1.73090       -4.73120        2.96130
H          2.87560       -2.78830        0.88710
H          0.14500       -3.17420        2.34000
H          0.22010       -2.66910        0.65530
C          3.33520       -0.94210       -1.43110
H          1.26320       -0.44510       -1.74160
H          1.54420       -1.88590       -0.75020
H          3.70270        0.06970       -1.70730
H          3.38430       -1.59200       -2.33020
H          3.99970       -1.36470       -0.64860
C          4.77200       -4.49010        1.49330
H          5.63200       -5.16140        1.69310
H          5.06800       -3.44980        1.74710
H          4.51040       -4.56030        0.41570
