19
TSA8_9_Me_NO2_F
C          2.67900       -1.09940        0.25650
C          1.40780       -1.22540        1.08850
C          2.41720       -0.19570       -0.95810
H          3.45480       -0.59470        0.87000
N          1.37050       -0.83880        2.39630
C          3.31400       -2.45630       -0.16290
C          2.51680       -3.30090       -1.13170
C          1.41330       -3.97290       -0.79250
O          0.38860       -1.64960        0.56110
F          4.53190       -2.17840       -0.76310
H          3.53810       -3.06300        0.74190
H          2.88500       -3.40540       -2.14860
H          1.02260       -3.95270        0.21740
H          0.90180       -4.57800       -1.53410
H          1.65980       -0.64960       -1.63260
H          3.35330       -0.03450       -1.53340
H          2.04430        0.79560       -0.62180
O          0.35570       -0.93240        3.01980
O          2.44280       -0.36310        2.99340
