20
TSA8_9_Cl_Et_I
C          2.12020       -1.39760       -1.34690
C          0.88380       -2.11680       -0.86590
Cl         1.91530        0.35050       -1.02280
H          3.00480       -1.74980       -0.77160
C          0.99300       -3.14900        0.23200
C          2.36720       -1.64870       -2.84850
C          3.60440       -0.92550       -3.31570
C          3.56160       -0.00040       -4.27940
O         -0.20050       -1.85310       -1.36870
I          2.65580       -3.73820       -3.25060
H          1.47800       -1.31140       -3.42640
H          4.55930       -1.16380       -2.85590
H          2.62690        0.26540       -4.76340
H          4.47260        0.50020       -4.59100
C         -0.35060       -3.78120        0.59530
H          1.41640       -2.66450        1.13780
H          1.68570       -3.95250       -0.09710
H         -1.05820       -3.00360        0.95430
H         -0.20430       -4.52840        1.40340
H         -0.78590       -4.29490       -0.28860
