20
TSA8_9_Cl_Et_I
C          1.95780       -0.19830        0.00990
C          1.55310       -1.21850       -0.77060
Cl         2.05870        1.46000       -0.57160
H          2.21380       -0.37240        1.05030
C          1.44220       -2.61360       -0.20530
C          2.46570       -3.15790       -3.68320
C          3.00250       -1.99150       -3.31180
C          2.14310       -0.77950       -3.07790
O          1.22110       -1.01670       -2.07400
I          3.68500       -4.84910       -4.00330
H          1.39290       -3.25520       -3.82400
H          4.07680       -1.91250       -3.17750
H          1.60040       -0.54270       -4.01670
H          2.78500        0.08940       -2.82430
C          0.01300       -3.13350       -0.31260
H          1.74960       -2.64280        0.86280
H          2.11820       -3.28730       -0.77290
H         -0.67430       -2.48760        0.27330
H         -0.03770       -4.16570        0.09350
H         -0.31510       -3.15400       -1.37370
