17
TSA8_9_OH_F_NH2
C          1.10140       -2.23140        0.13230
C          1.14640       -1.06310        1.13120
O          0.48450       -1.80240       -1.05480
H          2.13260       -2.59190       -0.08840
F          1.90220       -1.36330        2.25540
C          0.30000       -3.38480        0.75970
C         -1.07310       -2.86640        1.21070
C         -0.86710       -1.66500        2.14170
O         -0.15690       -0.62530        1.48690
N          0.16280       -4.50330       -0.17420
H          0.84780       -3.74560        1.65940
H         -1.67570       -2.54690        0.33150
H         -0.35330       -1.97060        3.08040
H         -1.86410       -1.27940        2.43940
H          1.18110       -1.33450       -1.58540
H         -0.41380       -4.21950       -0.99970
H         -0.32390       -5.29450        0.30630
