17
TSA8_9_CH2F_Cl_H
C          1.63270       -1.03810        1.31490
C          0.76840        0.18140        1.08900
C          1.64480       -1.91390        0.05130
H          2.67170       -0.67530        1.47750
Cl         1.47400        1.78650        1.19780
C          1.26570       -1.85430        2.58430
C         -0.08570       -2.52960        2.58520
C         -1.23450       -1.86630        2.74340
O         -0.40460        0.07490        0.76920
H          2.02680       -2.65970        2.67300
H          1.36130       -1.22400        3.49490
H         -0.12260       -3.61170        2.49850
H         -1.25380       -0.79190        2.88410
H         -2.17450       -2.40810        2.75780
F          2.52630       -2.97000        0.20180
H          1.97190       -1.31020       -0.82260
H          0.63100       -2.31670       -0.15880
