21
TSA8_9_CF3_OH_CH2F
C          1.92500       -0.07460       -0.11010
C          1.58420       -0.74420       -1.23250
C          1.83200        1.41990        0.08550
H          2.30720       -0.64310        0.73320
O          1.71110       -2.09060       -1.28210
C          4.14640       -0.44150       -4.00190
C          3.35700        0.25230       -3.17080
C          1.86560        0.37320       -3.39090
O          1.10620       -0.10310       -2.32870
C          5.62210       -0.53700       -3.75990
H          3.72430       -0.94540       -4.86680
H          3.79340        0.75590       -2.31230
H          1.55230       -0.16130       -4.31350
H          1.63440        1.44830       -3.53180
F          3.09740        1.91580        0.33970
F          1.31030        2.07880       -1.01060
F          1.02470        1.67900        1.17680
H          2.03720       -2.61330       -0.53570
F          6.18640        0.72610       -3.77420
H          6.09300       -1.15120       -4.55530
H          5.81350       -1.01500       -2.77590
