14
TSA8_9_F_Cl_Br
C          2.12110       -0.08740        0.09350
C          1.33070       -1.10680        0.43480
F          2.29700        0.24270       -1.21330
H          2.63210        0.49110        0.85660
Cl         1.12900       -1.49750        2.14550
C         -0.47280       -4.65010       -1.99620
C         -0.67520       -3.38990       -1.59830
C         -0.14700       -2.87400       -0.29210
O          0.70030       -1.81500       -0.53640
Br        -1.16740       -5.25800       -3.67030
H          0.08650       -5.34880       -1.38130
H         -1.23870       -2.71260       -2.23360
H          0.40050       -3.67030        0.26000
H         -1.00610       -2.53410        0.32550
