14
TSA8_9_F_Cl_Br
C          1.41770       -1.81660       -1.02870
C          0.99540       -1.41310        0.39150
F          0.90550       -0.88900       -1.92140
H          2.52490       -1.80870       -1.11680
Cl         1.85940       -2.30490        1.68530
C          0.86130       -3.20850       -1.34550
C         -0.64930       -3.20420       -1.11610
C         -0.93400       -2.73890        0.31780
O         -0.41550       -1.43840        0.55890
Br         1.26760       -3.72490       -3.17080
H          1.32510       -3.95850       -0.66830
H         -1.14380       -2.51080       -1.83140
H         -0.54200       -3.46990        1.05830
H         -2.03430       -2.70980        0.45880
