16
TSA8_9_Cl_I_NH2
C          2.92970       -1.29210       -1.11400
C          1.44950       -1.08980       -0.91880
Cl         3.82700       -0.17570       -0.03800
H          3.17320       -2.32820       -0.79510
I          0.25400       -2.66990       -0.18800
C          3.34550       -1.14560       -2.59800
C          3.13370        0.26200       -3.11990
C          2.29960        0.52740       -4.12920
O          0.92470       -0.01590       -1.16850
N          4.74780       -1.53150       -2.76750
H          2.72870       -1.86640       -3.18230
H          3.67890        1.08310       -2.66330
H          1.73310       -0.26110       -4.61430
H          2.17650        1.54920       -4.47380
H          5.37870       -0.85750       -2.27610
H          4.98900       -1.52490       -3.78550
