16
TSA8_9_Cl_I_NH2
C          1.96330       -0.31750       -0.17410
C          1.32010       -0.99520       -1.14920
Cl         2.87500        1.17780       -0.34800
H          1.91360       -0.70780        0.83710
I          0.27950       -2.74600       -0.58780
C          3.80900       -1.35460       -3.76080
C          3.45180       -0.16720       -3.25140
C          2.00660        0.24840       -3.19520
O          1.26190       -0.66570       -2.47310
N          5.16820       -1.74920       -3.81140
H          3.04930       -2.03260       -4.14080
H          4.21130        0.51100       -2.87330
H          1.61490        0.27370       -4.23380
H          1.88550        1.26970       -2.78280
H          5.91630       -1.13480       -3.45750
H          5.41830       -2.66790       -4.20420
