16
TSA8_9_Cl_I_NH2
C          2.83630       -0.92950       -1.25410
C          1.29920       -0.73040       -1.41280
Cl         3.59400        0.58250       -0.65880
H          3.03870       -1.69420       -0.47500
I          0.28060       -2.53830       -0.88090
C          3.40710       -1.36230       -2.61200
C          3.11490       -0.28940       -3.68090
C          1.79590        0.44660       -3.37960
O          0.87760       -0.41280       -2.74220
N          4.83370       -1.68190       -2.53840
H          2.86000       -2.28730       -2.90160
H          3.90830        0.48530       -3.75680
H          1.36870        0.83020       -4.32870
H          1.96610        1.34270       -2.74180
H          5.39110       -0.81920       -2.34280
H          5.14460       -2.07340       -3.45690
