21
TSA8_9_CH2F_OH_Me
C          2.70270       -0.99490       -1.06460
C          1.47500       -1.32730       -0.23590
C          2.84580        0.53880       -1.15500
H          3.59070       -1.37810       -0.51470
O          1.59250       -1.99200        0.93400
C          2.64860       -1.74110       -2.43630
C          1.50860       -1.26570       -3.31360
C          0.51530       -2.07780       -3.68820
O          0.36420       -0.98750       -0.61400
C          3.96090       -1.63700       -3.22510
H          2.51820       -2.82310       -2.20250
H          1.49610       -0.23590       -3.65760
H          0.48670       -3.11570       -3.37140
H         -0.28230       -1.70130       -4.32010
F          4.03070        0.90640       -1.76240
H          2.85660        0.96620       -0.12910
H          1.99330        0.99330       -1.70190
H          2.45000       -2.27910        1.27750
H          4.81030       -1.99820       -2.60730
H          4.16420       -0.60050       -3.55950
H          3.90190       -2.27360       -4.13430
