21
TSA8_9_CH2F_OH_Me
C          2.72260       -1.15260       -1.19250
C          1.43490       -1.66690       -0.47280
C          2.61210        0.36530       -1.44260
H          3.59190       -1.28630       -0.50940
O          1.79130       -2.43400        0.63870
C          2.93030       -2.00850       -2.46510
C          1.69180       -1.92750       -3.37710
C          0.39850       -1.82690       -2.54960
O          0.56700       -2.44700       -1.29510
C          4.21800       -1.72000       -3.24250
H          3.00270       -3.06160       -2.10960
H          1.71030       -1.07140       -4.08690
H         -0.42930       -2.30840       -3.10950
H          0.08090       -0.77060       -2.40440
F          3.79990        0.87580       -1.93170
H          2.40630        0.87680       -0.47840
H          1.79700        0.62270       -2.14540
H          1.47030       -1.91110        1.41650
H          5.09800       -1.82380       -2.57300
H          4.20840       -0.70270       -3.68260
H          4.32330       -2.44840       -4.07470
