19
TSA8_9_NH2_CBr3_I
C          1.64710       -0.12900        0.13310
C          1.45550       -1.43190       -0.20950
N          1.79170        0.93110       -0.80350
H          1.65730        0.16380        1.17360
C          1.20450       -2.50910        0.83580
C          4.31830       -2.99070       -2.95130
C          2.99720       -2.79160       -3.01030
C          2.36020       -1.53410       -2.49320
O          1.45820       -1.87230       -1.50170
I          5.16640       -4.78000       -3.67860
H          4.98000       -2.24170       -2.52640
H          2.36020       -3.56000       -3.43780
H          1.82060       -1.04070       -3.32840
H          3.14770       -0.84930       -2.10840
H          1.66230        0.80650       -1.81490
H          1.93430        1.88890       -0.45470
Br         1.18950       -1.93970        2.70140
Br        -0.51260       -3.33150        0.47980
Br         2.57500       -3.87010        0.66820
