19
TSA8_9_H_NH2_CH2F
C          3.12230        1.54840        1.30300
C          1.65030        1.42030        0.97980
H          3.70650        0.90560        0.60830
H          3.43520        2.60150        1.13150
N          0.93250        2.50210        0.59520
C          3.44510        1.18030        2.76730
C          3.15430       -0.27970        3.03810
C          2.27190       -0.66810        3.96350
O          1.10280        0.33010        1.05320
C          4.92380        1.45950        3.06530
H          2.83690        1.83280        3.43450
H          3.68140       -1.03710        2.46420
H          1.72550        0.05640        4.55910
H          2.09210       -1.72540        4.12970
H         -0.06950        2.41070        0.37050
H          1.37110        3.43120        0.51940
F          5.20630        1.17580        4.39040
H          5.15280        2.53110        2.88180
H          5.57940        0.84130        2.41460
