19
TSA8_9_H_NH2_CH2F
C          2.27370        0.39670        0.21840
C          1.50000        1.11950        1.04890
H          2.81120       -0.48410        0.55000
H          2.37580        0.67950       -0.82470
N          0.81650        2.25630        0.54710
C          3.82110        1.40830        3.82270
C          3.48220        0.25410        3.23080
C          2.03980       -0.14750        3.09000
O          1.33680        0.80040        2.36530
C          5.25330        1.82340        3.96160
H          3.04730        2.06630        4.20980
H          4.25330       -0.40620        2.84200
H          1.59500       -0.22310        4.10470
H          1.95130       -1.14490        2.60820
H          0.22650        2.81920        1.17640
H          0.90320        2.54070       -0.43980
F          5.94620        0.89080        4.71170
H          5.30670        2.80860        4.47080
H          5.71980        1.91320        2.95800
