16
TSA8_9_Br_NO2_Cl
C          1.89230        0.12340       -0.26560
C          1.43400        0.75900       -1.37790
Br         2.60050        0.87750        1.35270
H          1.85440       -0.95960       -0.22470
N          0.90780       -0.02410       -2.45240
C          4.27170        3.95670       -1.77580
C          3.58000        3.00430       -1.14070
C          2.09700        3.12590       -0.89630
O          1.42110        2.11730       -1.55360
Cl         5.99540        3.76620       -2.05120
H          3.78370        4.85740       -2.13560
H          4.10120        2.11550       -0.80080
H          1.72830        4.09330       -1.29980
H          1.85380        3.13710        0.18180
O          0.49750        0.51820       -3.43400
O          0.87610       -1.33920       -2.38930
