17
TSA8_9_CCl3_H_I
C          1.63920        0.63800        1.46070
C          0.87150        1.06040        0.22360
C          1.56020       -0.91920        1.64090
H          2.70640        0.87690        1.25640
H          1.40920        1.48630       -0.61790
C          1.22410        1.56410        2.65330
C         -0.19030        1.37130        3.14210
C         -1.11610        2.32890        3.02360
O         -0.34100        0.93680        0.15240
I          2.53850        1.51560        4.35100
H          1.34670        2.60920        2.28840
H         -0.46840        0.43980        3.62030
H         -0.88430        3.28260        2.55960
H         -2.12190        2.15930        3.39370
Cl        -0.09720       -1.54720        1.87410
Cl         2.20110       -1.71200        0.17140
Cl         2.56460       -1.52470        2.98100
