20
TSA8_9_CF3_CF3_I
C          1.60120       -1.82100        0.46260
C          0.91670       -0.78290        1.33550
C          1.52140       -1.39150       -1.02480
H          2.68010       -1.83850        0.73500
C          1.70060       -0.01840        2.36590
C          1.05030       -3.24110        0.78820
C         -0.41060       -3.42600        0.45320
C         -1.32360       -3.67510        1.39770
O         -0.27960       -0.56420        1.20490
I          2.16740       -4.81660       -0.15010
H          1.20750       -3.40390        1.87830
H         -0.73520       -3.36520       -0.57970
H         -1.04610       -3.74880        2.44450
H         -2.36540       -3.80650        1.12330
F          2.20880       -2.27340       -1.83570
F          0.21170       -1.31080       -1.46190
F          2.10270       -0.14380       -1.17080
F          0.88080        0.86960        3.04070
F          2.24930       -0.90180        3.27690
F          2.71540        0.68900        1.74830
