20
TSA8_9_CCl3_CCl3_H
C          1.98800       -1.82510        0.54190
C          1.27730       -1.08140        1.67040
C          1.85630       -1.09740       -0.83690
H          3.07340       -1.83910        0.78640
C          2.03380       -0.60770        2.89930
C          1.56940       -3.32390        0.51170
C          0.11390       -3.57790        0.20440
C         -0.26790       -4.29360       -0.85820
O          0.07270       -0.88620        1.59700
H          1.78390       -3.77380        1.50450
H          2.21180       -3.85880       -0.22030
H         -0.64980       -3.18060        0.86410
H         -1.32320       -4.46060       -1.04790
H          0.45970       -4.71410       -1.54540
Cl         0.17150       -0.94020       -1.41570
Cl         2.52720        0.55270       -0.74860
Cl         2.78850       -1.95440       -2.09630
Cl         2.77040       -2.00150        3.73030
Cl         3.32560        0.53810        2.46350
Cl         0.95350        0.21150        4.06440
