20
TSA8_9_CCl3_CCl3_H
C          2.13000       -0.27880       -0.17070
C          1.61930       -0.98830        0.87330
C          1.65440       -0.21540       -1.61110
H          2.99540        0.34870        0.00150
C          2.20120       -0.88120        2.28290
C          0.19560       -5.37720        1.24210
C          0.20140       -4.05310        1.41310
C          0.67160       -3.14100        0.32000
O          0.55340       -1.81970        0.71470
H         -0.14450       -6.02850        2.04020
H          0.52900       -5.81920        0.30730
H         -0.13890       -3.63710        2.35770
H          0.04030       -3.31630       -0.57390
H          1.72650       -3.39110        0.06390
Cl         0.14560       -1.06810       -2.02280
Cl         1.39150        1.49630       -2.02300
Cl         2.94860       -0.84660       -2.65710
Cl         2.78920       -2.47240        2.82600
Cl         3.56070        0.26860        2.48240
Cl         0.90780       -0.35470        3.38830
