21
TSA8_9_CF3_NH2_NO2
C          2.09040        0.27350        0.18330
C          1.74090        1.31910       -0.62710
C          1.71570       -0.16920        1.58320
H          2.79390       -0.43240       -0.25330
N          2.32030        1.34180       -1.92590
C          1.37720        4.70380        2.05970
C          1.33900        3.40080        1.72400
C          0.29570        2.86310        0.77420
O          0.89000        2.35820       -0.36130
N          2.35630        5.23350        2.94610
H          0.64000        5.38520        1.64320
H          2.07510        2.71810        2.13390
H         -0.36980        3.69100        0.45110
H         -0.38790        2.12820        1.22950
F          2.86780       -0.22620        2.34410
F          0.80960        0.61060        2.24680
F          1.18590       -1.44340        1.50100
H          2.09000        2.10690       -2.57630
H          2.97520        0.61220       -2.24490
O          3.19300        4.53320        3.43280
O          2.34370        6.51730        3.23140
