29
TSA8_9_Et_CF3_Et
C          2.70910        0.42260       -1.75460
C          1.45810       -0.15220       -2.40200
C          2.34960        0.89170       -0.32350
H          3.43390       -0.40270       -1.60310
C          1.36120       -1.61790       -2.73180
C          3.39380        1.50500       -2.67440
C          2.48480        2.67730       -3.02350
C          2.09180        3.60310       -2.14300
O          0.50350        0.57710       -2.63210
C          3.91030        0.89060       -4.00410
H          4.29470        1.91890       -2.17470
H          2.15710        2.80250       -4.05300
H          1.45600        4.41990       -2.47000
H          2.40510        3.58280       -1.10860
C          3.56560        1.34910        0.48520
H          1.90420        0.02900        0.22080
H          1.57810        1.68630       -0.33770
H          4.31670        0.53260        0.54370
H          3.24590        1.60850        1.51620
H          4.03860        2.24660        0.04030
F          0.12500       -1.91010       -3.28110
F          2.34250       -1.96620       -3.63900
F          1.52370       -2.36230       -1.57790
C          5.03770       -0.13030       -3.81890
H          4.33540        1.71040       -4.62580
H          3.07570        0.43170       -4.57650
H          5.89020        0.33480       -3.27950
H          5.39400       -0.46660       -4.81530
H          4.70450       -1.02830       -3.26520
