29
TSA8_9_Et_CF3_Et
C          2.75610        0.46060       -1.64270
C          1.26760        0.19290       -1.98570
C          2.81810        0.95060       -0.16810
H          3.29610       -0.50580       -1.62180
C          0.96890       -0.83020       -3.09390
C          3.40330        1.46310       -2.66010
C          2.33250        2.32390       -3.36300
C          1.11660        2.55240       -2.46420
O          0.44110        1.35540       -2.08130
C          4.28630        0.78910       -3.74040
H          4.06530        2.16270       -2.11410
H          1.95880        1.84300       -4.28730
H          0.40120        3.17950       -3.03720
H          1.40080        3.14070       -1.57060
C          4.24110        1.03490        0.39320
H          2.27520        0.21190        0.46310
H          2.32270        1.92880       -0.02960
H          4.74570        0.04810        0.31540
H          4.19420        1.32110        1.46500
H          4.85470        1.79590       -0.12760
F         -0.37910       -1.13400       -3.06710
F          1.28110       -0.35800       -4.35030
F          1.68010       -1.99270       -2.86220
C          5.52490        0.08860       -3.17410
H          4.65270        1.57780       -4.43470
H          3.69660        0.05900       -4.33080
H          6.14770        0.80930       -2.60420
H          6.12970       -0.31480       -4.01380
H          5.25970       -0.76230       -2.51750
