21
TSA8_9_CBr3_CF3_CN
C          1.57070       -0.11120        0.05720
C          1.26270       -1.30740        0.69490
C          1.76500        0.47980       -1.35950
H          1.66510        0.71680        0.74700
C          1.47520       -1.41470        2.20340
C          1.10560       -4.92860       -1.73030
C          1.28940       -3.61070       -1.66620
C          0.24890       -2.72340       -1.08930
O          0.77560       -2.45680        0.15020
C          2.26630       -5.76020       -1.89160
H          0.13800       -5.37840       -1.52670
H          2.27850       -3.18830       -1.82580
H         -0.73170       -3.24820       -0.99740
H         -0.00360       -1.80090       -1.62980
Br         0.67330        2.03830       -1.80110
Br         3.54690        1.21420       -1.19350
Br         1.81280       -0.60140       -2.96740
F          0.28130       -1.78720        2.76740
F          2.42480       -2.38100        2.54320
F          1.91320       -0.22450        2.75240
N          3.22340       -6.40050       -2.02300
