18
TSA8_9_NO2_OH_CN
C          1.63220        0.06490        0.01720
C          1.47080        1.39610        0.32230
N          1.63750       -1.15650        0.77670
H          1.71440       -0.10900       -1.05230
O          1.84190        2.22810       -0.66800
C          1.69000        2.39000        4.63570
C          1.71400        1.50620        3.63260
C          0.58350        1.48480        2.64260
O          1.09420        2.00750        1.48500
C          2.84840        2.57820        5.46580
H          0.82050        3.02140        4.78090
H          2.59970        0.88300        3.46560
H         -0.25420        2.12120        3.00740
H          0.09030        0.52730        2.45400
O          2.21860       -2.06930        0.27050
O          1.42280       -1.22140        2.06950
H          1.98710        3.16120       -0.46330
N          3.79310        2.71110        6.11880
