22
TSA8_9_CH2F_CCl3_NO2
C          2.44800       -1.61330        0.00850
C          1.39170       -1.12940        0.99140
C          2.49580       -0.62900       -1.18450
H          3.43090       -1.57450        0.52740
C          1.77330       -0.70980        2.39560
C          2.18110       -3.10950       -0.37830
C          0.94420       -3.25580       -1.24100
C         -0.13020       -3.93830       -0.83380
O          0.22150       -1.07550        0.63830
N          3.30500       -3.75170       -1.04920
H          2.03560       -3.66570        0.57620
H          0.92860       -2.80140       -2.22700
H         -0.15950       -4.41330        0.14170
H         -0.99490       -4.02380       -1.48390
F          3.47720       -0.95680       -2.09840
H          2.71210        0.39380       -0.80830
H          1.51950       -0.59040       -1.71110
Cl         2.53720       -2.07280        3.25340
Cl         2.92040        0.65310        2.33390
Cl         0.35060       -0.18980        3.34400
O          4.33710       -3.17930       -1.22990
O          3.22210       -5.02740       -1.36190
