23
TSA8_9_Me_CHF2_CCl3
C          3.02180       -2.05970        0.89520
C          1.62010       -1.99140        1.55900
C          3.12590       -1.11060       -0.31280
H          3.77610       -1.72550        1.64000
C          1.27180       -0.63980        2.18620
C          3.31590       -3.54300        0.46730
C          2.06360       -4.42790        0.65970
C          0.83050       -3.69030        0.10470
O          0.60330       -2.39220        0.65480
C          4.55020       -4.15190        1.18670
H          3.54250       -3.56400       -0.62320
H          1.88160       -4.62340        1.73840
H         -0.06460       -4.32030        0.28780
H          0.95740       -3.58160       -0.99350
H          2.37830       -1.37610       -1.09120
H          4.13960       -1.17710       -0.76110
H          2.96510       -0.05710       -0.00840
F          0.06070       -0.74190        2.84440
F          2.24370       -0.27660        3.10060
H          1.18530        0.14730        1.41020
Cl         4.84620       -5.82010        0.62110
Cl         6.01960       -3.20410        0.82290
Cl         4.33790       -4.19340        2.96290
