15
TSA8_9_Cl_H_CN
C          2.12400        0.11870       -1.93710
C          1.68230       -1.31370       -1.98850
Cl         3.51080        0.48140       -0.86100
H          1.27510        0.51020       -1.34840
H          2.06510       -2.04000       -1.28160
C          2.10260        0.87010       -3.30470
C          1.59530        2.24910       -3.00110
C          0.27260        2.40340       -2.86590
O          0.67890       -1.60150       -2.62490
C          3.32170        0.92360       -4.14950
H          1.34480        0.38270       -3.95740
H          2.27250        3.05570       -2.74390
H         -0.39390        1.56270       -3.04970
H         -0.14790        3.33970       -2.53410
N          4.23460        1.00460       -4.86250
