15
TSA8_9_Cl_H_CN
C          2.54200        0.04800       -2.00600
C          1.12030       -0.44130       -1.63150
Cl         3.02360        1.40210       -0.92850
H          3.26910       -0.77150       -1.81860
H          1.12410       -1.53560       -1.83380
C          2.48810        0.43810       -3.48730
C          1.56050        1.64750       -3.63430
C          0.28150        1.43880       -2.79530
O          0.07780        0.07740       -2.46560
C          3.79170        0.62620       -4.13430
H          2.02530       -0.40750       -4.03790
H          2.03770        2.59920       -3.29450
H         -0.56980        1.79570       -3.41130
H          0.27950        2.04450       -1.86180
N          4.79780        0.78160       -4.68530
