20
TSA8_9_CN_OH_OMe
C          2.48660        1.24990       -0.32960
C          1.91860        0.34350       -1.45080
C          1.72310        1.07810        0.93250
H          3.50510        0.85260       -0.14100
O          1.79590       -0.98860       -1.26440
C          2.56030        2.81440       -0.60580
C          2.23620        3.24960       -2.02410
C          0.93180        3.36660       -2.37280
O          1.65360        0.77040       -2.56320
O          3.50310        3.57480        0.15120
H          1.64750        3.19320       -0.11060
H          2.99960        3.33480       -2.78970
H          0.61710        3.56370       -3.38650
H          0.14150        3.20130       -1.63480
N          1.12070        1.01300        1.91040
H          1.50860       -1.55310       -2.00450
C          4.83300        3.58180       -0.32330
H          4.94840        4.13910       -1.27730
H          5.29070        2.57240       -0.33370
H          5.42930        4.16640        0.41900
