20
TSA8_9_Me_Br_CH2F
C          1.45850        0.09700        2.60810
C          1.06110        1.08840        1.49810
C          1.46610       -1.32790        2.02430
H          2.49930        0.31380        2.93460
Br         1.53730        2.94610        1.86630
C          0.49160        0.29040        3.80630
C         -0.96030        0.18780        3.32240
C         -1.17690        1.17870        2.17180
O         -0.29090        0.93160        1.08990
C          0.75830       -0.67190        4.97080
H          0.64170        1.32150        4.19790
H         -1.19410       -0.84240        2.97990
H         -1.08800        2.22670        2.53130
H         -2.21880        1.06360        1.80790
H          1.80710       -2.06380        2.78040
H          2.18040       -1.37600        1.17450
H          0.46800       -1.63040        1.64750
F         -0.08050       -0.37380        6.03020
H          1.80960       -0.56610        5.31300
H          0.58130       -1.72570        4.67170
