22
TSA8_9_OH_OMe_CBr3
C          1.58850       -0.09870        0.18830
C          1.81320       -1.41480       -0.01280
O          1.11730        0.70370       -0.79450
H          1.78920        0.35670        1.15070
O          2.29930       -2.22840        0.97120
C          3.98860       -3.36880       -3.10790
C          3.45870       -3.14650       -1.89410
C          1.97240       -3.18810       -1.65850
O          1.54040       -1.94670       -1.23320
C          5.47180       -3.28810       -3.35530
H          3.33270       -3.60130       -3.94250
H          4.10850       -2.91160       -1.05580
H          1.71430       -3.96890       -0.91140
H          1.43880       -3.43480       -2.60160
H          0.91860        0.38760       -1.68730
C          2.59460       -1.85950        2.26770
H          1.68440       -1.47120        2.77310
H          3.39500       -1.08940        2.27500
H          2.95310       -2.74910        2.82500
Br         5.85200       -3.67230       -5.21650
Br         6.12090       -1.50210       -2.96240
Br         6.42660       -4.57220       -2.25910
