17
TSA8_9_CH2F_Br_Br
C          1.80680       -0.04470       -0.00480
C          1.06870       -0.22860        1.10050
C          2.25170       -1.16620       -0.90120
H          2.10060        0.96410       -0.28010
Br         0.57530        1.32130        2.13180
C          0.01970       -3.88780        3.78040
C         -0.32070       -3.22940        2.66700
C         -0.14330       -1.74500        2.54100
O          0.68540       -1.47750        1.47280
Br        -0.22220       -5.77990        3.89960
H          0.43680       -3.36340        4.63490
H         -0.73790       -3.77800        1.82750
H          0.29300       -1.31920        3.47160
H         -1.13790       -1.28120        2.36430
F          3.63200       -1.18100       -0.96390
H          1.84510       -0.99560       -1.91960
H          1.90020       -2.15800       -0.54800
