17
TSA8_9_Br_Cl_CHF2
C          2.24640        2.41010        0.36730
C          1.02820        1.54490        0.81150
Br         3.85940        1.30950        0.31790
H          2.09860        2.74650       -0.68180
Cl        -0.42810        2.07090       -0.07650
C          2.35610        3.61150        1.32520
C          2.54910        3.11520        2.77220
C          1.87460        1.74920        2.99290
O          0.71260        1.62840        2.20390
C          3.41380        4.65620        0.93270
H          1.36970        4.12580        1.28630
H          3.61510        3.00520        3.06840
H          1.62140        1.63930        4.06720
H          2.56670        0.90930        2.76220
F          4.69110        4.12680        0.97140
F          3.15950        5.13490       -0.34010
H          3.36810        5.50970        1.64240
