23
TSA8_9_CF3_CH2F_Me
C          2.52280       -0.08480       -1.79990
C          1.51740       -0.98210       -1.10010
C          2.71160        1.21960       -0.98340
H          3.50320       -0.61280       -1.78570
C          1.95020       -2.31620       -0.56200
C          2.13310        0.08700       -3.30600
C          0.82390        0.82280       -3.50730
C         -0.23840        0.23840       -4.06990
O          0.35590       -0.62330       -0.96750
C          3.22490        0.77980       -4.13180
H          2.04610       -0.94390       -3.72140
H          0.74010        1.85960       -3.19950
H         -0.20420       -0.79510       -4.39980
H         -1.15760        0.79970       -4.20280
F          3.70760        2.00840       -1.52500
F          1.54100        1.95260       -0.91650
F          3.09190        0.89630        0.30800
F          0.88950       -2.97380        0.03650
H          2.75350       -2.16940        0.19000
H          2.33940       -2.94140       -1.39250
H          4.19080        0.24250       -4.02070
H          3.35740        1.83990       -3.83840
H          2.94580        0.76570       -5.20750
