23
TSA8_9_CF3_CH2F_Me
C          2.44950       -0.13440       -2.02710
C          1.28260       -1.01420       -1.46740
C          2.46310        1.22200       -1.28370
H          3.42880       -0.62060       -1.81220
C          1.78340       -2.21130       -0.66310
C          2.31120       -0.05520       -3.57380
C          0.89190        0.36420       -3.99380
C         -0.16360       -0.29620       -3.09070
O          0.37490       -1.44680       -2.47280
C          3.37920        0.77830       -4.28720
H          2.43870       -1.10250       -3.93140
H          0.72000        1.46200       -4.01060
H         -1.05280       -0.56260       -3.69780
H         -0.53360        0.41890       -2.31840
F          3.55390        1.98040       -1.66480
F          1.30950        1.94410       -1.52360
F          2.56400        0.99810        0.07850
F          0.70960       -2.89090       -0.11880
H          2.44260       -1.86620        0.16080
H          2.35380       -2.89960       -1.32260
H          4.39260        0.42220       -4.00510
H          3.28210        1.85480       -4.03960
H          3.26380        0.67220       -5.38690
