23
TSA8_9_CN_Et_NO2
C          2.85830        1.29150        0.16640
C          1.58930        1.69880       -0.58280
C          2.45560        0.16780        1.04550
H          3.60890        0.92370       -0.56860
C          1.42660        1.50560       -2.07190
C          3.38030        2.55290        0.98360
C          2.76820        2.50020        2.36280
C          1.59360        3.05320        2.62860
O          0.67130        2.20850        0.04090
N          4.82400        2.71560        1.10250
H          3.03270        3.45780        0.43050
H          3.21040        1.83050        3.09950
H          1.08850        3.65660        1.88640
H          1.11580        2.84180        3.57480
N          2.08200       -0.65320        1.78260
C          0.14480        2.18140       -2.58500
H          1.38790        0.41640       -2.29150
H          2.29180        1.95170       -2.60360
H         -0.75370        1.74540       -2.09560
H          0.04760        2.06070       -3.68250
H          0.17920        3.26990       -2.35350
O          5.47520        1.96610        1.77400
O          5.38650        3.81700        0.65040
