23
TSA8_9_CN_Et_NO2
C          1.64820        0.04720       -0.05190
C          1.55850        1.32030       -0.55580
C          1.82080       -0.35040        1.32110
H          1.55210       -0.78410       -0.73780
C          1.45150        1.47500       -2.05880
C          3.92930        3.64560        1.45900
C          3.11730        2.65280        1.87140
C          1.65680        2.64690        1.53420
O          1.50690        2.48160        0.17550
N          5.31220        3.68910        1.80220
H          3.51870        4.46070        0.86690
H          3.50600        1.84480        2.47510
H          1.20680        3.61090        1.86950
H          1.09730        1.86120        2.07330
N          1.95950       -0.70110        2.41580
C          0.17530        2.21890       -2.39920
H          1.47020        0.47250       -2.55570
H          2.28520        2.08490       -2.48310
H         -0.67900        1.74560       -1.98880
H         -0.03630        2.21430       -3.47500
H          0.18040        3.24640       -1.98870
O          5.81750        2.81620        2.44200
O          6.03920        4.72140        1.43330
