23
TSA8_9_CN_Et_NO2
C          2.90770        1.20960        0.25920
C          1.49010        1.60990       -0.26040
C          2.70330        0.14670        1.26240
H          3.55000        0.79680       -0.55210
C          1.47750        1.65460       -1.79230
C          3.54890        2.49370        0.83400
C          2.70690        3.01460        2.00650
C          1.21210        2.88730        1.67650
O          1.01960        2.85300        0.27630
N          4.94600        2.38320        1.19810
H          3.48340        3.25830        0.02450
H          2.89930        2.47180        2.95980
H          0.68170        3.75680        2.11620
H          0.76730        1.97750        2.14250
N          2.52680       -0.66870        2.06460
C          0.16460        2.21330       -2.32850
H          1.61810        0.61640       -2.16720
H          2.31220        2.28490       -2.16870
H         -0.69640        1.63080       -1.93940
H          0.16910        2.16940       -3.43660
H          0.05470        3.27670       -2.02410
O          5.30920        1.57840        2.00040
O          5.78840        3.30640        0.78130
