16
TSA8_9_CN_I_CN
C          1.65500        0.09350       -0.03710
C          1.54580        1.43280       -0.28570
C          1.79810       -0.59420        1.23020
H          1.53350       -0.60480       -0.86920
I          1.32630        2.02130       -2.30910
C          3.33250        1.87090        3.73900
C          3.02270        2.04020        2.44900
C          1.60410        2.30600        2.00890
O          1.51420        2.44170        0.63850
C          4.69950        1.60170        4.10300
H          2.57370        1.92080        4.51310
H          3.82710        1.98090        1.72090
H          1.26370        3.23600        2.50270
H          0.91320        1.50350        2.32760
N          1.90910       -1.23060        2.19170
N          5.80790        1.38620        4.35430
