18
TSA8_9_NH2_CN_CN
C          2.47830        1.65030        0.16480
C          1.47070        1.87890       -0.94590
N          2.21800        0.34130        0.79170
H          3.46560        1.60730       -0.34090
C          1.32170        0.91630       -2.01200
C          2.49030        2.82570        1.20680
C          1.49100        2.61030        2.31900
C          0.18910        2.84800        2.16000
O          0.81790        2.90520       -1.01310
C          3.80740        3.04290        1.82220
H          2.31010        3.79350        0.70910
H          1.83110        2.22070        3.27850
H         -0.19990        3.24320        1.23030
H         -0.50130        2.65440        2.97530
H          2.89790        0.14360        1.55950
H          1.24140        0.29700        1.17140
N          1.21470        0.15750       -2.87340
N          4.85290        3.27980        2.27850
