19
TSA8_9_NO2_Cl_Me
C          2.85720        1.40990        0.79350
C          1.42600        1.61850        0.35610
N          3.16930       -0.01190        0.82430
H          3.50520        1.89870        0.02900
Cl         1.07900        2.49390       -1.12710
C          3.16000        2.12130        2.14500
C          2.35170        1.57890        3.30710
C          1.47770        2.33640        3.97700
O          0.49800        1.18000        1.01740
C          4.65190        2.03010        2.48790
H          2.92400        3.20100        2.00310
H          2.48600        0.54970        3.62190
H          1.30770        3.37380        3.70740
H          0.92150        1.91380        4.80760
O          4.01620       -0.45040        0.10610
O          2.49170       -0.83660        1.59450
H          5.26130        2.46950        1.66940
H          4.96170        0.97350        2.63710
H          4.86470        2.59800        3.41910
