19
TSA8_9_NO2_Cl_Me
C          2.84480        1.35410        0.98790
C          1.32090        1.59650        0.80450
N          3.07790       -0.05210        1.27050
H          3.38920        1.63170        0.05590
Cl         0.89410        1.99160       -0.88150
C          3.37910        2.27430        2.11210
C          2.50640        2.18920        3.37640
C          1.01300        2.10350        3.00790
O          0.79990        2.57390        1.69110
C          4.86160        2.05380        2.42380
H          3.26740        3.31580        1.73430
H          2.76080        1.35010        4.05940
H          0.42000        2.69760        3.73270
H          0.64200        1.05530        3.10730
O          3.75680       -0.70230        0.53480
O          2.53260       -0.62920        2.32020
H          5.46830        2.18810        1.50320
H          5.03190        1.03080        2.82090
H          5.20320        2.79130        3.18110
