20
TSA8_9_NO2_CCl3_CN
C          1.64900       -1.06000        1.34970
C          2.66660        0.01640        1.77350
N          2.05160       -1.70870        0.10880
H          0.70030       -0.52720        1.12920
C          2.47700        1.50660        1.48690
C          1.28440       -2.06800        2.50680
C          0.98490       -1.28740        3.76060
C         -0.05380       -0.45650        3.80120
O          3.52190       -0.28930        2.59360
C          2.30010       -3.08850        2.82800
H          0.38750       -2.64980        2.20990
H          1.64050       -1.36970        4.62750
H         -0.24110        0.13840        4.68400
H         -0.71330       -0.37000        2.94480
O          2.17900       -1.05190       -0.87990
O          2.18620       -3.01440        0.02980
Cl         4.05940        2.25390        1.14070
Cl         1.41330        1.86130        0.09520
Cl         1.79910        2.32890        2.91570
N          3.05350       -3.91830        3.12630
