20
TSA8_9_NO2_CCl3_CN
C          1.48560       -1.12570        1.48620
C          2.15880        0.12820        2.17780
N          2.16920       -1.66110        0.31400
H          0.49390       -0.75280        1.14700
C          2.49170        1.38790        1.30810
C          1.17960       -2.25640        2.53030
C          0.95110       -1.70140        3.94020
C          0.47820       -0.26280        3.84470
O          1.53770        0.55670        3.39420
C          2.15360       -3.36090        2.61630
H          0.23460       -2.73160        2.19160
H          1.90620       -1.65990        4.51930
H          0.19860        0.07800        4.86160
H         -0.42120       -0.15600        3.20000
O          3.18820       -1.18500       -0.08350
O          1.64650       -2.68320       -0.33130
Cl         4.24460        1.42330        1.00480
Cl         1.62100        1.47160       -0.24990
Cl         2.11860        2.92370        2.16330
N          2.88940       -4.24920        2.71630
