20
TSA8_9_Et_Cl_H
C          2.47570       -1.31360       -0.13600
C          1.16190       -1.64010        0.53820
C          2.31850       -0.01380       -0.96260
H          3.20540       -1.11320        0.68000
Cl         1.07210       -1.70740        2.29180
C          3.06640       -2.50130       -0.94840
C          2.33870       -2.87690       -2.21800
C          1.16440       -3.51260       -2.23590
O          0.13940       -1.79680       -0.10880
H          4.09440       -2.20880       -1.24660
H          3.18050       -3.39880       -0.30210
H          2.81710       -2.65480       -3.16770
H          0.66140       -3.80570       -1.32310
H          0.70560       -3.77030       -3.18490
C          3.63210        0.50560       -1.54860
H          1.91530        0.78080       -0.29620
H          1.59140       -0.17110       -1.78910
H          4.36900        0.68930       -0.73820
H          3.44340        1.46190       -2.08040
H          4.05670       -0.20900       -2.28230
