20
TSA8_9_Et_Cl_H
C          1.71380       -0.20640        0.16200
C          1.29630       -1.39540        0.67080
C          1.99200        0.21280       -1.26200
H          1.86050        0.59480        0.88260
Cl         1.05340       -1.45200        2.41160
C          3.22780       -4.31360       -1.89460
C          2.69120       -3.13270       -1.57170
C          1.21800       -2.97690       -1.28740
O          1.01370       -2.55910        0.01120
H          4.29280       -4.38940       -2.08900
H          2.61950       -5.20990       -1.96700
H          3.34530       -2.27310       -1.51070
H          0.71760       -3.96260       -1.39840
H          0.70480       -2.30990       -2.00490
C          3.42280        0.72890       -1.38970
H          1.29600        1.03960       -1.51830
H          1.84690       -0.57120       -2.01010
H          3.58890        1.58540       -0.70150
H          3.60350        1.07300       -2.43000
H          4.15150       -0.07270       -1.14780
