26
TSA8_9_CBr3_CF3_Et
C          1.49930       -1.44370        1.71290
C          2.93110       -1.48110        2.26950
C          1.27630       -1.79290        0.18310
H          1.29600       -0.34940        1.65010
C          4.08200       -2.33700        1.78910
C          0.49890       -1.96720        2.82070
C         -0.93880       -2.04070        2.36040
C         -1.88810       -1.24230        2.86060
O          3.16740       -0.75430        3.22610
C          0.87870       -3.27050        3.58460
H          0.55820       -1.19810        3.62600
H         -1.21780       -2.76880        1.60540
H         -1.65990       -0.50080        3.62010
H         -2.90990       -1.32860        2.50650
Br        -0.36480       -0.98680       -0.49590
Br         2.63880       -0.93540       -0.91540
Br         1.16720       -3.65700       -0.34960
F          5.11460       -1.51450        1.37710
F          4.52840       -3.11490        2.84110
F          3.75050       -3.17720        0.75420
C          0.92400       -4.56730        2.78890
H          0.12950       -3.40830        4.39610
H          1.86400       -3.14260        4.08180
H         -0.03940       -4.75580        2.27140
H          1.11360       -5.41220        3.48420
H          1.76840       -4.54730        2.07920
