21
TSA8_9_H_OMe_CHF2
C          1.42040       -0.23290       -0.36880
C          1.78660        0.95080       -0.88540
H          1.15330       -0.30730        0.68080
H          1.37930       -1.13630       -0.96680
O          2.13990        1.09870       -2.19580
C          4.67890        3.79490       -0.00550
C          3.45030        3.58970        0.49620
C          2.28010        3.28010       -0.38920
O          1.81410        2.02390       -0.05270
C          5.87980        4.07000        0.85650
H          4.83600        3.74840       -1.07990
H          3.27840        3.61820        1.56800
H          2.57240        3.33850       -1.46060
H          1.47910        4.03020       -0.21990
C          2.21800        0.09450       -3.13940
H          2.52230        0.53570       -4.11120
H          1.22910       -0.39410       -3.26680
H          2.98030       -0.65420       -2.83610
F          5.55780        4.11090        2.20260
F          6.81870        3.07680        0.65070
H          6.31770        5.04650        0.56540
