19
TSA8_9_NH2_CBr3_F
C          2.07860       -1.05980        0.27930
C          1.13570       -0.10430        0.98970
N          1.97240       -0.84490       -1.16580
H          3.12440       -0.83070        0.58270
C          1.66110        1.00780        1.87570
C          1.77020       -2.53630        0.62740
C          1.90010       -2.80280        2.10440
C          0.87040       -3.23820        2.83700
O         -0.06850       -0.22280        0.81280
F          2.65730       -3.36500       -0.03770
H          0.74260       -2.78210        0.27950
H          2.85910       -2.63920        2.58660
H          0.99870       -3.42110        3.89870
H         -0.10340       -3.41470        2.39010
H          1.01770       -1.10600       -1.50520
H          2.67840       -1.43110       -1.66680
Br         0.22150        2.06960        2.63850
Br         2.70900        0.30490        3.34680
Br         2.78000        2.19860        0.83200
