19
TSA8_9_NH2_CBr3_F
C          2.22220       -1.27770        0.50990
C          1.17340       -0.58550        1.43360
N          2.23220       -0.69700       -0.83260
H          3.23050       -1.15990        0.96360
C          1.34370        0.94160        1.62550
C          1.87760       -2.78010        0.42760
C          1.73990       -3.36680        1.82900
C          0.73020       -2.52240        2.60890
O          1.20030       -1.19610        2.71280
F          2.85190       -3.46790       -0.27460
H          0.90370       -2.90940       -0.09520
H          2.72160       -3.33730        2.35170
H          0.63300       -2.94340        3.63090
H         -0.28260       -2.55960        2.14480
H          1.30120       -0.83570       -1.29020
H          2.96700       -1.15970       -1.41480
Br        -0.04070        1.58080        2.82520
Br         3.06320        1.36920        2.42340
Br         1.14020        1.96930       -0.01030
