25
TSA8_9_CH2F_OMe_OMe
C          1.88240       -0.04130       -0.05200
C          1.73430        0.65190        1.09280
C          1.69940       -1.52860       -0.18140
H          2.13300        0.50280       -0.95840
O          1.86890        2.00230        1.03950
C          4.55270        0.20760        3.60470
C          3.22850        0.21500        3.77480
C          2.31440       -0.70340        3.01700
O          1.41540        0.03120        2.26340
O          5.32010        1.06840        4.31240
H          5.01280       -0.47920        2.89700
H          2.78540        0.91130        4.48210
H          1.74950       -1.30010        3.76250
H          2.88240       -1.40950        2.37410
F          2.88140       -2.09990       -0.61330
H          0.90740       -1.72760       -0.93250
H          1.38700       -2.01140        0.76530
C          1.83630        2.83630        2.13480
H          1.89500        3.88850        1.78840
H          2.71230        2.64600        2.78520
H          0.89370        2.69580        2.70480
C          6.68490        1.13570        4.16030
H          7.09040        1.91070        4.84440
H          6.93960        1.41410        3.11470
H          7.14780        0.15750        4.41120
