21
TSA8_9_CN_CHF2_Me
C          2.67030       -1.78140        0.14800
C          1.57180       -1.59520        1.21700
C          2.28240       -0.83990       -0.95450
H          3.62390       -1.37440        0.53220
C          1.71020       -0.72140        2.43290
C          2.72530       -3.35380       -0.28700
C          2.00300       -3.39490       -1.58740
C          0.69570       -3.51690       -1.65380
O          0.50230       -2.17160        1.08760
C          3.91280       -4.37900       -0.49590
H          2.18860       -3.85620        0.54810
H          2.58100       -3.13010       -2.47580
H          0.12430       -3.69290       -0.75510
H          0.22540       -3.36750       -2.61030
N          1.94040       -0.13750       -1.81190
F          1.74310       -1.51080        3.56700
F          2.84130        0.06730        2.37810
H          0.82120       -0.05110        2.49390
H          4.88890       -4.21620       -0.00340
H          4.06440       -4.70590       -1.55820
H          3.55820       -5.36600       -0.09360
