21
TSA8_9_CN_CHF2_Me
C          1.65250       -0.03200        0.04280
C          1.49950       -1.07120        0.91770
C          1.78890       -0.06760       -1.39430
H          1.70610        0.97110        0.45640
C          1.55720       -0.71700        2.38150
C          2.76260       -4.93410       -0.38800
C          2.47000       -3.74120       -0.92870
C          1.19670       -3.02200       -0.61150
O          1.35140       -2.40260        0.61300
C          4.02010       -5.66550       -0.75820
H          2.06780       -5.40760        0.30140
H          3.15180       -3.28030       -1.63310
H          0.33910       -3.73790       -0.63070
H          0.94780       -2.30760       -1.40380
N          1.90130       -0.06150       -2.54610
F          1.70300       -1.85190        3.15960
F          2.65170        0.10200        2.61670
H          0.63540       -0.17820        2.66890
H          4.91750       -5.09190       -0.44590
H          4.05450       -5.82650       -1.85740
H          4.03630       -6.65890       -0.26310
