18
TSA8_9_OH_CF3_F
C          1.93780       -0.33020       -1.95890
C          0.73420       -1.23690       -2.04900
O          1.57030        0.81680       -1.23440
H          2.75710       -0.88120       -1.43530
C          0.77460       -2.62450       -1.46990
C          2.44170        0.04860       -3.36810
C          3.68650        0.90320       -3.33670
C          3.70320        2.14650       -2.84430
O         -0.28510       -0.83530       -2.59240
F          2.73840       -1.11590       -4.05810
H          1.64870        0.58920       -3.92980
H          4.60620        0.50040       -3.75150
H          2.81060        2.60960       -2.43900
H          4.62420        2.72000       -2.85610
H          2.22990        0.93230       -0.50090
F         -0.43600       -3.26750       -1.66300
F          1.77330       -3.35560       -2.08570
F          1.03220       -2.55250       -0.11350
