18
TSA8_9_OH_CF3_F
C          1.80360       -0.16130       -0.20150
C          1.52630       -0.83660       -1.34390
O          2.17360        1.13460       -0.19780
H          1.70690       -0.65520        0.76080
C          1.05540       -2.27110       -1.29130
C          3.01930        0.91190       -5.43350
C          3.16220        0.31440       -4.24650
C          2.40400        0.76170       -3.03110
O          1.61860       -0.28890       -2.59190
F          3.72750        0.46970       -6.50510
H          2.34220        1.75100       -5.56010
H          3.84770       -0.52310       -4.15300
H          1.74710        1.62660       -3.26770
H          3.15910        1.07040       -2.28400
H          2.35500        1.59410        0.63360
F         -0.19240       -2.35910       -1.87990
F          1.94050       -3.06130       -2.00080
F          0.96850       -2.75850        0.00230
