23
TSA8_9_CCl3_OMe_NH2
C          1.39050        1.42160       -1.35790
C          2.71640        1.20420       -2.06240
C          1.58650        1.43960        0.19750
H          0.76460        0.52880       -1.57890
O          3.68760        2.15150       -2.00180
C          0.66320        2.64660       -2.01420
C         -0.79790        2.77390       -1.62940
C         -1.68810        1.81260       -1.89940
O          2.89490        0.17450       -2.69960
N          1.36930        3.90530       -1.75820
H          0.67190        2.47700       -3.11580
H         -1.14670        3.67660       -1.13550
H         -1.39450        0.89850       -2.40530
H         -2.72790        1.94160       -1.61790
Cl         2.69790        2.71180        0.78610
Cl         0.04390        1.60900        1.07770
Cl         2.28210       -0.12170        0.72000
C          4.90600        2.04080       -2.63670
H          5.45310        1.14940       -2.26230
H          5.50990        2.94700       -2.42640
H          4.75760        1.95630       -3.73470
H          1.19840        4.22290       -0.77780
H          0.98410        4.64660       -2.38770
