23
TSA8_9_CCl3_OMe_NH2
C          1.42720        0.48230       -0.02660
C          1.99500        0.87860       -1.18710
C          2.19280        0.33700        1.26800
H          0.37110        0.24450       -0.01060
O          3.32640        1.14990       -1.22090
C         -0.06910        3.98030       -3.13780
C          0.17950        3.07190       -2.18430
C          0.01970        1.59530       -2.43230
O          1.25970        0.99390       -2.33010
N          0.13270        5.36150       -2.89720
H         -0.41230        3.66410       -4.11940
H          0.53450        3.39700       -1.21010
H         -0.36170        1.41560       -3.45970
H         -0.71350        1.15580       -1.72580
Cl         2.86720        1.90950        1.77170
Cl         1.09970       -0.23550        2.55420
Cl         3.51350       -0.85050        1.09730
C          4.00070        1.66400       -2.31180
H          4.80810        0.96400       -2.60590
H          4.45090        2.63760       -2.03000
H          3.33800        1.83180       -3.18830
H          0.48090        5.69920       -1.98790
H         -0.04360        6.04170       -3.64990
