17
TSA8_9_OH_H_NO2
C          0.67200        0.28340        1.70510
C          1.44550        1.00590        0.63180
O          1.55150       -0.51040        2.45830
H         -0.09890       -0.36530        1.22620
H          1.19830        0.84540       -0.41230
C         -0.04520        1.28030        2.64250
C         -1.02100        2.13740        1.86490
C         -0.89020        3.46500        1.78430
O          2.35140        1.77040        0.92510
N         -0.75610        0.56980        3.68960
H          0.73040        1.92700        3.11510
H         -1.85050        1.65940        1.35130
H         -0.07220        3.98090        2.27750
H         -1.60700        4.04620        1.21360
H          1.80460       -1.28070        1.88460
O         -1.63160       -0.19660        3.41940
O         -0.43560        0.76700        4.95070
