17
TSA8_9_OH_H_NO2
C          1.89960       -0.02630       -0.11670
C          1.13570        1.02300        0.19210
O          2.44220       -0.78870        0.85490
H          2.08070       -0.27170       -1.15910
H          0.70370        1.61590       -0.61030
C         -1.17020        2.16130        4.05020
C         -1.01230        1.76300        2.77550
C          0.04920        2.34780        1.88850
O          0.90090        1.33820        1.48890
N         -2.16930        1.60710        4.89960
H         -0.51680        2.93040        4.45390
H         -1.65760        0.99620        2.35790
H          0.64060        3.11990        2.42560
H         -0.44450        2.83660        1.01910
H          2.98650       -1.55640        0.63200
O         -2.90620        0.75150        4.51060
O         -2.27410        2.03580        6.13860
