21
TSA8_9_CHF2_CHF2_OH
C          1.82640        0.12810        0.01110
C          1.42760        1.41270        0.16260
C          1.88190       -0.91740        1.09880
H          2.12120       -0.21430       -0.97610
C          1.36130        2.32590       -1.03310
C          4.14810        3.38990        2.02720
C          3.36420        2.30150        2.03270
C          1.89150        2.38090        2.37460
O          1.05100        1.91360        1.36870
O          5.46340        3.30450        1.72800
H          3.73450        4.36390        2.26970
H          3.79470        1.33280        1.79740
H          1.60400        3.42850        2.60560
H          1.71570        1.78320        3.29150
F          3.18320       -1.36010        1.24220
F          1.41810       -0.46950        2.31860
H          1.24550       -1.77300        0.79130
F          0.05990        2.76030       -1.20100
F          2.18180        3.41950       -0.82930
H          1.68100        1.81390       -1.96590
H          5.89250        2.46590        1.50450
