21
TSA8_9_CHF2_NO2_NH2
C          2.14480       -2.08190        0.64230
C          0.73060       -2.08160       -0.02870
C          2.98530       -0.92050        0.06710
H          2.04420       -1.88050        1.73300
N         -0.30600       -1.77100        0.93710
C          2.76420       -3.49430        0.49080
C          2.74000       -3.97780       -0.97030
C          1.44270       -3.53350       -1.66630
O          0.43190       -3.29990       -0.70840
N          4.09540       -3.61420        1.08500
H          2.08080       -4.17210        1.05330
H          3.60720       -3.64650       -1.58060
H          1.12360       -4.31520       -2.38550
H          1.60780       -2.61770       -2.28000
F          4.18840       -0.80090        0.73750
F          3.23350       -1.07510       -1.28390
H          2.43190        0.03180        0.21100
O         -1.20150       -2.53550        1.13750
O         -0.27720       -0.62510        1.58270
H          4.79930       -3.11350        0.49790
H          4.36630       -4.62390        1.10710
