15
TSA8_9_Br_Cl_OH
C          1.75050       -0.00070       -0.14210
C          1.54170        0.83640       -1.16370
Br         1.84110        0.62430        1.66610
H          1.88020       -1.06250       -0.32600
Cl         1.46910        0.19640       -2.80210
C          1.97090        3.51450       -3.55020
C          2.81400        3.17690       -2.56510
C          2.36450        3.10360       -1.13200
O          1.37050        2.16170       -0.93960
O          2.38750        3.58280       -4.83440
H          0.93260        3.73970       -3.32440
H          3.85280        2.95640       -2.79480
H          1.98060        4.09900       -0.82330
H          3.23200        2.85360       -0.48420
H          3.30150        3.39400       -5.09310
