23
TSA8_9_Et_NO2_CN
C          2.31310        1.07750       -1.13080
C          0.98350        0.36400       -1.56480
C          2.18220        1.52950        0.35710
H          3.13390        0.32730       -1.18410
N          1.28890       -0.85470       -2.29220
C          2.55060        2.21390       -2.16020
C          1.38640        3.21970       -2.12350
C          0.06020        2.49710       -1.82880
O          0.09720        1.18290       -2.33850
C          3.84740        2.89860       -2.10300
H          2.51890        1.73290       -3.16330
H          1.50980        4.02680       -1.36600
H         -0.77490        3.06490       -2.28730
H         -0.16090        2.46680       -0.73750
C          3.43600        1.27890        1.19240
H          1.39900        0.91560        0.85460
H          1.86530        2.58810        0.44520
H          3.65270        0.18700        1.21610
H          3.24250        1.60130        2.23950
H          4.31330        1.82480        0.79600
O          0.90710       -1.01100       -3.41250
O          1.95990       -1.81860       -1.69800
N          4.85750        3.46350       -2.09720
