23
TSA8_9_OMe_OMe_OH
C          0.73660        0.22640       -1.51850
C          1.69940       -0.91860       -1.34320
O          1.48120        1.43070       -1.61950
H          0.02530        0.23610       -0.65400
O          1.59460       -1.71630       -0.24970
C         -0.13700        0.08750       -2.78790
C         -1.06220       -1.11490       -2.75470
C         -0.63400       -2.38210       -2.78090
O          2.56200       -1.12310       -2.18750
O         -0.92460        1.24670       -2.89210
H          0.53240        0.02090       -3.67870
H         -2.13480       -0.94320       -2.73240
H          0.41810       -2.63230       -2.83250
H         -1.35380       -3.19430       -2.76580
C          1.51970        2.10230       -0.37990
H          2.15120        3.00750       -0.49200
H          1.98510        1.46920        0.40760
H          0.50430        2.44630       -0.08280
C          2.39320       -2.81720       -0.02480
H          3.45990       -2.51290        0.03480
H          2.25920       -3.55840       -0.84200
H          2.10050       -3.28940        0.93540
H         -1.18780        1.33390       -3.84580
