19
TSA8_9_CF3_CN_OH
C          1.23350       -1.76950        0.59610
C          2.32820       -1.49820        1.60240
C          1.70290       -1.40150       -0.83280
H          0.38960       -1.09780        0.85460
C          2.09790       -0.56250        2.68370
C          0.72520       -3.23610        0.72120
C         -0.67040       -3.37260        0.14650
C         -1.70560       -2.72610        0.70170
O          3.37180       -2.12920        1.58470
O          1.61770       -4.11610        0.08550
H          0.65040       -3.50760        1.80000
H         -0.85020       -4.01530       -0.71130
H         -1.56610       -2.09380        1.57450
H         -2.70650       -2.83100        0.29760
F          2.89690       -2.03490       -1.14170
F          0.75580       -1.76520       -1.77160
F          1.89790       -0.03430       -0.91480
N          1.90370        0.19240        3.53170
H          1.28960       -5.03750        0.25530
