19
TSA8_9_CF3_CN_OH
C          1.09820       -2.06000        0.11990
C          1.28160       -1.60120        1.61020
C          2.10020       -1.52460       -0.91710
H          0.15380       -1.66000       -0.30310
C          1.40530       -0.16720        1.87360
C          0.91450       -3.58830        0.27920
C         -0.50730       -3.75760        0.85860
C         -0.82910       -2.62070        1.86540
O          0.35370       -2.20570        2.53240
O          1.03690       -4.31130       -0.91370
H          1.67280       -3.98110        1.00830
H         -1.25380       -3.65650        0.03120
H         -1.61820       -2.95300        2.56880
H         -1.27390       -1.73250        1.35360
F          3.41850       -1.73420       -0.57260
F          1.84250       -2.12030       -2.14150
F          1.87900       -0.16420       -1.07190
N          1.52340        0.95340        2.13600
H          1.05740       -5.27160       -0.64610
