20
TSA8_9_NO2_Br_OMe
C          1.90010        0.01740       -0.12950
C          1.16170        0.62840       -1.07300
N          2.25340        0.62300        1.11190
H          2.24120       -0.99700       -0.32270
Br         0.76750       -0.34620       -2.68610
C         -0.06540        5.04510       -1.92790
C         -0.38120        3.93930       -1.22650
C         -0.11890        2.56210       -1.76380
O          0.70990        1.89500       -0.88840
O         -0.27730        6.31010       -1.47180
H          0.38260        4.93870       -2.91120
H         -0.83540        4.01510       -0.24380
H          0.35570        2.61150       -2.76900
H         -1.08560        2.02110       -1.84760
O          2.90800        0.00610        1.89640
O          1.86280        1.84100        1.42130
C         -0.78760        6.65050       -0.23550
H         -1.81100        6.23700       -0.11270
H         -0.12260        6.27030        0.56920
H         -0.84060        7.75580       -0.15750
