22
TSA8_9_OMe_F_OMe
C          0.22290        0.47130        0.91030
C          1.10000        0.92340       -0.23280
O          1.03290        0.17240        2.03460
H         -0.35980       -0.41680        0.56120
F          1.08920        0.23470       -1.40380
C         -0.83950        1.53840        1.27930
C         -0.22480        2.86140        1.73030
C         -0.42170        4.00130        1.05980
O          1.83710        1.88940       -0.11290
O         -1.80430        0.99900        2.18350
H         -1.40860        1.73890        0.34370
H          0.39810        2.88680        2.61970
H          0.03430        4.92150        1.41010
H         -1.03330        4.03030        0.16340
C          1.39710       -1.19100        2.03580
H          2.10520       -1.36390        2.87180
H          1.92500       -1.47220        1.09730
H          0.50990       -1.83780        2.21370
C         -1.49040        1.17230        3.55160
H         -1.71270        2.21210        3.87390
H         -0.44730        0.88930        3.79600
H         -2.14090        0.49740        4.14440
