18
TSA8_9_OH_NO2_OH
C          1.68780        0.15290       -0.07920
C          1.41280        1.39110       -0.56090
O          1.98390       -0.07880        1.21440
H          1.66050       -0.70360       -0.74630
N          1.07950        1.54780       -1.94110
C          4.20560        3.63000        1.84420
C          3.41430        2.60200        1.50170
C          1.91100        2.72620        1.48770
O          1.42090        2.52390        0.20980
O          5.55160        3.50670        1.84590
H          3.77330        4.58530        2.12540
H          3.86790        1.65650        1.22250
H          1.61420        3.74900        1.80360
H          1.44080        2.02700        2.20880
H          2.16540       -0.97580        1.52670
O          0.83230        2.63380       -2.37060
O          1.04470        0.51370       -2.75580
H          5.99820        2.68350        1.60030
