23
TSA8_9_CH2F_Me_CCl3
C          2.20410       -0.66810       -2.05970
C          0.98020       -1.55620       -1.99230
C          1.93970        0.53630       -1.12730
H          3.07080       -1.22390       -1.63850
C          1.07730       -2.94060       -1.42190
C          2.54350       -0.23320       -3.53360
C          3.73320        0.71150       -3.52080
C          3.64040        1.97460       -3.95160
O         -0.10080       -1.14140       -2.38590
C          2.86540       -1.41410       -4.51170
H          1.66030        0.30660       -3.94480
H          4.69050        0.35560       -3.15050
H          2.70400        2.37310       -4.32900
H          4.51130        2.62100       -3.92670
F          3.06560        1.32410       -0.97070
H          1.65960        0.16870       -0.11600
H          1.10690        1.16020       -1.51700
H          1.79900       -3.54200       -2.01200
H          0.08720       -3.44390       -1.44520
H          1.42520       -2.88410       -0.36950
Cl         3.31520       -0.78060       -6.12390
Cl         4.22360       -2.41780       -3.92340
Cl         1.46990       -2.48690       -4.81140
