23
TSA8_9_CH2F_Me_CCl3
C          1.74720       -0.07800       -0.10660
C          1.40000       -0.77770       -1.21190
C          1.88000        1.41950       -0.04760
H          1.91970       -0.60960        0.82440
C          1.21910       -2.26800       -1.13420
C          2.87270       -0.51550       -5.35870
C          2.85660       -0.60100       -4.01910
C          2.17410        0.42670       -3.16260
O          1.18320       -0.18230       -2.41350
C          3.56130       -1.55030       -6.21080
H          2.37850        0.32100       -5.84600
H          3.35270       -1.43230       -3.52480
H          1.71100        1.22410       -3.78210
H          2.94430        0.89680       -2.51640
F          3.17520        1.75340        0.29920
H          1.18660        1.80700        0.72670
H          1.61580        1.91900       -1.00010
H          1.92020       -2.76200       -1.83810
H          0.17870       -2.52570       -1.42210
H          1.40880       -2.66370       -0.11350
Cl         3.40070       -1.12310       -7.93320
Cl         5.29770       -1.63150       -5.81140
Cl         2.82380       -3.15390       -5.95680
