23
TSA8_9_CH2F_Me_CCl3
C          2.43950       -0.98100       -2.09720
C          0.92500       -0.64570       -1.83640
C          3.32250       -0.09640       -1.19460
H          2.63170       -2.02190       -1.75500
C          0.11140       -1.91910       -1.60330
C          2.69830       -0.87100       -3.63030
C          2.30850        0.53700       -4.13730
C          1.13030        1.11720       -3.34200
O          0.29330        0.08020       -2.89140
C          4.07180       -1.33710       -4.19290
H          1.95470       -1.57550       -4.06800
H          3.13170        1.28160       -4.10600
H          0.56230        1.81520       -3.99080
H          1.47060        1.72920       -2.47790
F          4.62660       -0.54810       -1.17850
H          2.95410       -0.17100       -0.14930
H          3.30360        0.97030       -1.48830
H          0.13320       -2.56430       -2.50830
H         -0.94170       -1.65240       -1.37630
H          0.52130       -2.48460       -0.74000
Cl         3.97750       -1.42670       -5.97460
Cl         5.42980       -0.23920       -3.81230
Cl         4.47600       -2.97460       -3.60990
