18
TSA8_9_CHF2_F_OH
C          1.37790       -0.07430       -0.30310
C          1.99330       -0.31170        0.86280
C          2.08560        0.52030       -1.48620
H          0.32610       -0.32300       -0.40160
F          1.28110       -0.85650        1.88760
C          5.97990        1.08030        2.82360
C          5.42080        0.15900        2.02490
C          3.99300       -0.27280        2.18920
O          3.30670       -0.01650        1.02290
O          7.26750        1.45750        2.66210
H          5.40110        1.53980        3.61910
H          6.00890       -0.29610        1.23280
H          3.50660        0.26350        3.03470
H          3.97560       -1.36380        2.40140
F          2.57690        1.77300       -1.16600
F          3.12860       -0.30020       -1.87610
H          1.37280        0.61980       -2.33130
H          7.83510        1.08490        1.97180
