18
TSA8_9_CHF2_F_OH
C          3.13260        0.65100        0.38780
C          2.27330       -0.34340        1.19100
C          3.35960        0.11720       -1.04590
H          2.57020        1.60430        0.27480
F          1.76670        0.22310        2.35210
C          4.42170        0.93710        1.19580
C          5.11630       -0.37100        1.58940
C          4.10090       -1.27840        2.29720
O          2.97810       -1.54510        1.47000
O          5.29150        1.77050        0.47690
H          4.11070        1.45500        2.13420
H          5.53510       -0.88600        0.70200
H          3.78380       -0.83750        3.26880
H          4.60060       -2.23950        2.53840
F          4.08470        1.02580       -1.79510
F          4.00330       -1.10580       -1.06620
H          2.37160       -0.01460       -1.53730
H          5.96530        2.10570        1.12470
