18
TSA8_9_OH_CH2F_Cl
C          1.89730       -0.21430        0.19840
C          1.43620       -1.29940        0.86410
O          2.36810       -0.27890       -1.06230
H          1.88270        0.75840        0.68370
C          0.90420       -1.13180        2.26090
C          4.22010       -4.22210       -0.61640
C          3.51540       -3.08520       -0.60450
C          2.01730       -3.07650       -0.77710
O          1.40560       -2.56730        0.35390
Cl         5.96260       -4.18780       -0.40080
H          3.73200       -5.18200       -0.75440
H          4.03770       -2.14510       -0.46030
H          1.64810       -4.11450       -0.92160
H          1.71890       -2.50740       -1.68090
H          2.68260        0.51660       -1.51320
F         -0.41540       -1.54110        2.30420
H          0.96110       -0.07950        2.61350
H          1.50090       -1.76160        2.95340
