18
TSA8_9_OH_CH2F_Cl
C          2.96560       -1.21830        0.22480
C          1.44160       -1.47160        0.48650
O          3.14300       -0.55660       -1.00130
H          3.41270       -0.59050        1.03030
C          1.12930       -1.41610        1.98260
C          3.67270       -2.57640        0.17440
C          3.07730       -3.44650       -0.94700
C          1.60640       -3.08220       -1.21410
O          0.95820       -2.72240       -0.01490
Cl         5.43930       -2.41190       -0.02320
H          3.48740       -3.08700        1.14360
H          3.61650       -3.33870       -1.91330
H          1.09400       -3.94710       -1.68340
H          1.52380       -2.24600       -1.94560
H          2.80660        0.36880       -0.87400
F         -0.23080       -1.56840        2.17960
H          1.43550       -0.43250        2.39720
H          1.66650       -2.22210        2.52550
