21
TSA8_9_CBr3_CBr3_OH
C          2.39210       -1.21130       -1.21280
C          1.01920       -1.87730       -1.07780
C          2.33900        0.33820       -0.94880
H          3.04510       -1.64130       -0.42160
C          0.74720       -2.99420       -0.07130
C          3.08450       -1.59020       -2.56760
C          2.37450       -1.08160       -3.80220
C          2.96810       -0.24690       -4.66170
O          0.11490       -1.52070       -1.81780
O          3.18980       -2.98570       -2.66330
H          4.11620       -1.17240       -2.52980
H          1.36130       -1.40800       -4.01110
H          2.43400        0.09560       -5.54200
H          3.98330        0.10240       -4.49840
Br         1.68360        0.74790        0.82870
Br         4.11370        1.12980       -1.02930
Br         1.19710        1.34460       -2.16550
Br         1.04340       -2.44060        1.76010
Br        -1.09230       -3.62020       -0.17920
Br         1.88140       -4.53060       -0.39690
H          3.90560       -3.18130       -3.32380
