21
TSA8_9_CBr3_CBr3_OH
C          2.84300       -1.20510       -1.26130
C          1.28900       -1.35030       -1.28640
C          3.27270        0.17770       -0.67430
H          3.21330       -2.00830       -0.58680
C          0.57600       -2.51920       -0.54050
C          3.46710       -1.42140       -2.67170
C          2.55110       -2.27560       -3.52750
C          1.20690       -1.53210       -3.67520
O          0.66190       -0.94870       -2.49350
O          4.73270       -2.01770       -2.55080
H          3.56410       -0.45260       -3.20630
H          2.44350       -3.27510       -3.08690
H          0.46010       -2.19740       -4.15490
H          1.39520       -0.68660       -4.37500
Br         2.59920        0.45720        1.12260
Br         5.20590        0.33790       -0.55790
Br         2.60880        1.66920       -1.74230
Br         1.14270       -2.64890        1.30990
Br        -1.33070       -2.17840       -0.50540
Br         0.81890       -4.28030       -1.30780
H          5.13170       -2.03850       -3.45780
