17
TSA8_9_Cl_OH_NO2
C          2.56420       -2.21800        0.83790
C          1.24690       -1.69480        0.19540
Cl         3.97230       -1.30740        0.20000
H          2.54640       -2.01650        1.93140
O          0.21670       -1.79290        1.13360
C          2.65060       -3.72750        0.56140
C          2.65760       -3.99570       -0.95660
C          1.91800       -2.88530       -1.72700
O          0.82600       -2.38710       -0.98470
N          3.77990       -4.35940        1.21950
H          1.71140       -4.16900        0.96640
H          3.67850       -4.06770       -1.39070
H          1.56540       -3.29320       -2.69650
H          2.59850       -2.04590       -1.98830
H         -0.03670       -0.85500        1.32660
O          4.90080       -4.05770        0.93770
O          3.57120       -5.28650        2.12980
