17
TSA8_9_Cl_CCl3_Br
C          2.81570       -1.35290       -1.37000
C          1.50210       -2.02900       -1.02160
Cl         2.67330        0.39180       -1.01130
H          3.61170       -1.72360       -0.68910
C          1.39040       -2.98790        0.14960
C          3.28880       -1.61120       -2.82970
C          2.29410       -1.22980       -3.90880
C          1.91270        0.02750       -4.15530
O          0.50280       -1.74910       -1.66880
Br         3.74010       -3.48920       -3.06280
H          4.23470       -1.05470       -3.00550
H          1.87900       -2.01240       -4.53770
H          1.20310        0.22750       -4.95170
H          2.30090        0.86710       -3.59450
Cl         2.45470       -4.39900       -0.06050
Cl         1.84850       -2.15130        1.65510
Cl        -0.27990       -3.59330        0.34830
