17
TSA8_9_Cl_CCl3_Br
C          3.20340       -1.53470       -1.44830
C          1.77280       -2.12650       -1.39350
Cl         3.27160        0.05680       -0.61780
H          3.96410       -2.16930       -0.94880
C          1.32240       -2.71120       -0.03940
C          3.58760       -1.37010       -2.93680
C          2.34970       -1.17690       -3.83640
C          1.21980       -0.48970       -3.05830
O          0.80290       -1.20210       -1.88900
Br         4.54560       -2.93900       -3.57800
H          4.29430       -0.51840       -3.03540
H          1.93750       -2.17010       -4.12390
H          0.34830       -0.39920       -3.73950
H          1.53250        0.53720       -2.77520
Cl         2.45590       -3.97280        0.51200
Cl         1.16110       -1.47600        1.23770
Cl        -0.26850       -3.48520       -0.24950
