21
TSA8_9_CCl3_CHF2_OH
C          2.79810       -0.50530       -1.34900
C          1.25630       -0.62710       -1.53690
C          3.13410        0.65970       -0.37930
H          3.12360       -1.45520       -0.86630
C          0.62110       -2.01600       -1.31620
C          3.54080       -0.36490       -2.70560
C          2.70070       -0.96510       -3.81990
C          1.37280       -0.17590       -3.88240
O          0.71990        0.08120       -2.64020
O          4.79820       -0.98920       -2.63110
H          3.67660        0.71070       -2.96390
H          2.55010       -2.04600       -3.65240
H          0.67670       -0.67460       -4.58560
H          1.62230        0.82010       -4.31280
Cl         2.57200        2.23720       -1.01550
Cl         2.34190        0.40220        1.19920
Cl         4.89090        0.77130       -0.07990
F         -0.75420       -1.88170       -1.25990
F          0.93910       -2.91550       -2.30710
H          0.96690       -2.42130       -0.34210
H          5.26550       -0.80480       -3.48790
