19
TSA8_9_F_CBr3_NH2
C          2.85980       -0.27810       -2.44090
C          1.40490       -0.18960       -1.86690
F          3.71500        0.40530       -1.59280
H          3.21280       -1.32950       -2.49580
C          0.65320       -1.53530       -1.83610
C          2.89230        0.37540       -3.83180
C          2.40730        1.83830       -3.74560
C          1.34890        1.99520       -2.64180
O          0.60690        0.80180       -2.51680
N          4.21630        0.28360       -4.44500
H          2.17330       -0.18000       -4.47040
H          3.22090        2.56440       -3.52970
H          0.68080        2.84850       -2.87960
H          1.82710        2.24990       -1.66750
Br         1.56800       -2.79760       -0.67970
Br        -1.12240       -1.27750       -1.09900
Br         0.46100       -2.32130       -3.60160
H          4.91070        0.82760       -3.88260
H          4.17770        0.69080       -5.40770
