19
TSA8_9_Cl_NH2_Me
C          1.93320        0.15900        0.03190
C          1.54200        1.40480        0.39590
Cl         2.26710       -1.20590        1.09230
H          2.03870       -0.06290       -1.02570
N          1.28750        2.35060       -0.63290
C          3.99340        2.24660        3.77160
C          3.36040        1.46610        2.88420
C          1.85860        1.33620        2.86900
O          1.36210        1.83500        1.68040
C          5.48380        2.38670        3.74580
H          3.43020        2.80040        4.51740
H          3.93940        0.92620        2.14090
H          1.41810        1.93610        3.69400
H          1.53260        0.29460        3.04490
H          0.99900        3.30870       -0.38750
H          1.40730        2.11080       -1.62810
H          5.80520        2.79930        2.76620
H          5.96260        1.39760        3.90360
H          5.80900        3.07930        4.54960
