19
TSA8_9_Cl_NH2_Me
C          3.21150        1.25950        1.15020
C          1.69750        1.52550        0.86900
Cl         3.49390       -0.50390        1.30440
H          3.82670        1.58970        0.28440
N          1.54930        2.56820       -0.14050
C          3.61720        2.01980        2.42480
C          2.74850        1.56310        3.61430
C          1.34100        1.15350        3.14920
O          0.95270        1.91330        2.02730
C          5.11030        1.91320        2.75040
H          3.38960        3.09330        2.23800
H          3.17490        0.70000        4.17240
H          0.62260        1.29950        3.98150
H          1.29670        0.06920        2.89900
H          0.52800        2.70890       -0.31400
H          1.95930        2.21930       -1.03700
H          5.71370        2.29400        1.89910
H          5.40010        0.86010        2.95160
H          5.34700        2.52280        3.64880
