24
TSA8_9_CH2F_Me_OMe
C          1.87300       -0.07540       -0.09090
C          1.48900       -0.69140       -1.24770
C          1.92190        1.38530        0.27090
H          2.19430       -0.71260        0.72850
C          1.53170       -2.19570       -1.29610
C          2.59010        3.04810       -3.35510
C          2.39730        1.78670       -2.93140
C          1.01030        1.21390       -2.81680
O          1.05670       -0.10170       -2.40460
O          3.82120        3.61660       -3.47960
H          1.72660        3.65350       -3.61390
H          3.24040        1.15780       -2.66400
H          0.54850        1.23670       -3.82640
H          0.34460        1.80540       -2.15720
F          3.21910        1.72060        0.61010
H          1.27250        1.54450        1.15690
H          1.58350        2.09060       -0.49100
H          2.21480       -2.51460       -2.11080
H          0.51330       -2.58370       -1.50850
H          1.88650       -2.65390       -0.34810
C          5.02670        3.00140       -3.20690
H          5.85210        3.71570       -3.40380
H          5.16180        2.11490       -3.86290
H          5.06920        2.69540       -2.13960
