24
TSA8_9_CH2F_Me_OMe
C          2.56350        0.87440       -1.23570
C          1.35940       -0.02610       -1.63750
C          2.55380        1.21870        0.26740
H          3.49570        0.31780       -1.46680
C          1.29410       -1.35340       -0.87940
C          2.47690        2.17270       -2.09070
C          2.29210        1.84970       -3.58850
C          1.12290        0.87410       -3.73520
O          1.40590       -0.31000       -3.02220
O          3.52500        3.09970       -1.82380
H          1.53680        2.69000       -1.79290
H          3.19700        1.35970       -4.00740
H          1.00230        0.62230       -4.80960
H          0.16160        1.33080       -3.40290
F          3.63540        2.01640        0.59590
H          2.63110        0.30130        0.88340
H          1.61640        1.75120        0.53670
H          2.22420       -1.93820       -1.04360
H          0.42980       -1.94400       -1.24910
H          1.13970       -1.19160        0.20530
C          4.75880        2.74720       -2.41910
H          4.79790        3.11320       -3.46660
H          4.98050        1.66190       -2.37120
H          5.57160        3.24890       -1.85450
