15
TSA8_9_Cl_OH_I
C          1.91010       -1.62790        0.72050
C          0.65450       -1.40060        1.52780
Cl         1.72080       -0.81020       -0.85990
H          2.77690       -1.16670        1.24200
O          0.69900       -0.74230        2.70610
C          2.18720       -3.13220        0.52810
C          3.44600       -3.34560       -0.27380
C          3.44010       -3.99670       -1.44090
O         -0.41910       -1.81210        1.11600
I          2.45470       -4.11520        2.41830
H          1.31660       -3.60260        0.01880
H          4.38620       -2.95850        0.10870
H          2.52100       -4.39820       -1.85680
H          4.36560       -4.13150       -1.99100
H          1.52750       -0.40040        3.06990
