14
TSA8_9_H_Br_F
C          2.23870       -0.13310        0.17430
C          1.37070       -1.12920       -0.00410
H          2.72390        0.33390       -0.67750
H          2.47210        0.22550        1.17160
Br         0.55170       -1.91300        1.55280
C         -0.91120       -2.37660       -3.86490
C         -0.77720       -1.90720       -2.62080
C          0.18900       -2.51070       -1.64240
O          1.11010       -1.55040       -1.27040
F         -1.79730       -1.79830       -4.71690
H         -0.32020       -3.21840       -4.21250
H         -1.38340       -1.06400       -2.30490
H          0.73470       -3.36400       -2.09850
H         -0.38890       -2.89900       -0.78060
