14
TSA8_9_H_Br_F
C          1.19880       -0.54150       -1.54260
C          1.36180       -1.54480       -0.37850
H          2.18110       -0.25840       -1.97580
H          0.73670        0.37890       -1.12490
Br         0.26660       -1.13910        1.18710
C          0.32420       -1.12340       -2.66240
C         -0.78020       -1.95100       -2.02810
C         -0.10170       -3.14940       -1.32050
O          1.20050       -2.88940       -0.78760
F         -0.18750       -0.10870       -3.45070
H          0.92800       -1.80390       -3.30380
H         -1.32960       -1.30830       -1.30600
H          0.04020       -3.92180       -2.10530
H         -0.77380       -3.58230       -0.54980
