21
TSA8_9_CN_CBr3_CHF2
C          2.86340       -0.33170       -1.58750
C          1.65810       -1.25340       -1.33040
C          2.64180        0.87740       -0.75440
H          3.77420       -0.83570       -1.21520
C          1.75460       -2.54390       -0.52950
C          2.97520        0.00890       -3.13020
C          2.04550        1.16410       -3.44650
C          0.81710        1.00820       -3.91880
O          0.55560       -0.91660       -1.74310
C          4.35810        0.35660       -3.74680
H          2.68310       -0.92640       -3.65710
H          2.37730        2.17150       -3.19530
H          0.42570        0.02180       -4.12660
H          0.19350        1.88570       -4.04590
N          2.40830        1.78960       -0.09200
Br         2.56030       -2.20290        1.20060
Br        -0.01090       -3.29640       -0.17520
Br         2.78560       -3.89730       -1.45450
F          4.82950        1.60000       -3.36020
F          5.30960       -0.60480       -3.46080
H          4.23380        0.38110       -4.85710
