21
TSA8_9_CN_CBr3_CHF2
C          1.64950       -0.06590       -0.04700
C          1.50240       -1.11940       -0.90280
C          1.79990        1.32730       -0.38920
H          1.57600       -0.24610        1.02330
C          1.50960       -2.53700       -0.33920
C          3.21440        0.25390       -4.67800
C          2.71170        0.42010       -3.44350
C          1.28600        0.07450       -3.10690
O          1.27390       -1.01420       -2.25360
C          4.64390        0.59630       -5.00660
H          2.59090       -0.14250       -5.47300
H          3.35870        0.80710       -2.66290
H          0.72830       -0.19850       -4.03980
H          0.74940        0.94060       -2.67180
N          1.92080        2.45600       -0.61460
Br         2.38260       -2.73810        1.39460
Br        -0.28570       -3.15720       -0.17580
Br         2.39420       -3.79770       -1.53200
F          4.89920        1.92760       -4.72740
F          5.50550       -0.19900       -4.27410
H          4.83560        0.41860       -6.08740
