22
TSA8_9_CN_OMe_CBr3
C          1.64130       -0.02820        0.05980
C          1.42730       -1.12480        0.83600
C          1.81610        0.01630       -1.37930
H          1.70110        0.93400        0.57830
O          1.49030       -0.92460        2.17070
C          3.01900       -4.53200       -1.49610
C          2.64050       -3.28600       -1.17690
C          1.21900       -2.94930       -0.85900
O          1.19580       -2.40680        0.40310
C          4.44820       -4.87530       -1.82270
H          2.27000       -5.31780       -1.53760
H          3.36380       -2.48090       -1.13310
H          0.57730       -3.86660       -0.87120
H          0.76320       -2.26220       -1.59850
N          1.96040        0.11900       -2.52820
C          1.81990       -1.94690        3.03620
H          2.28250       -1.51090        3.94360
H          2.58530       -2.62680        2.58150
H          0.91520       -2.52620        3.30290
Br         4.55020       -6.70670       -2.44350
Br         5.13450       -3.73290       -3.23450
Br         5.57780       -4.70070       -0.25810
