22
TSA8_9_CF3_CCl3_NO2
C          2.35960       -1.70360        0.87920
C          1.23070       -0.81210        1.52220
C          2.27430       -1.58360       -0.67270
H          3.35960       -1.31510        1.17190
C          1.76080        0.33830        2.40220
C          2.22160       -3.13840        1.47570
C          0.80870       -3.68990        1.22840
C         -0.24930       -2.59170        1.44140
O          0.26880       -1.56620        2.26140
N          3.24190       -4.10310        1.09630
H          2.30760       -3.01810        2.57920
H          0.66350       -4.16050        0.23270
H         -1.14820       -3.04140        1.91050
H         -0.60660       -2.16340        0.47920
F          3.30140       -2.25750       -1.29960
F          1.08100       -2.06680       -1.17010
F          2.37750       -0.25280       -1.03490
Cl         2.63830       -0.29340        3.82300
Cl         2.84500        1.41850        1.48580
Cl         0.39260        1.32330        2.98070
O          4.18190       -3.78860        0.43260
O          3.20980       -5.30950        1.62090
