20
TSA8_9_CH2F_CBr3_I
C          2.56490       -1.63780       -0.53740
C          1.38260       -2.21040        0.23770
C          2.19240       -0.23900       -1.06450
H          3.41180       -1.50010        0.16980
C          1.43130       -2.39170        1.74700
C          3.06950       -2.54400       -1.70260
C          2.03530       -2.77280       -2.78140
C          2.21390       -2.34550       -4.03510
O          0.34600       -2.46340       -0.35830
I          3.76780       -4.46090       -1.05440
H          3.96250       -2.04800       -2.14380
H          1.12170       -3.30670       -2.54450
H          1.45120       -2.53220       -4.78410
H          3.11200       -1.80940       -4.32570
F          3.27820        0.34930       -1.68930
H          1.88380        0.41590       -0.22240
H          1.34830       -0.29490       -1.78430
Br         1.74270       -0.68330        2.60890
Br        -0.24470       -3.09340        2.44320
Br         2.83380       -3.60570        2.30150
