20
TSA8_9_CH2F_CBr3_I
C          1.73890       -0.12540        0.05240
C          1.45320       -1.45560        0.10110
C          1.87230        0.71490       -1.18930
H          1.85960        0.43780        0.96780
C          1.24790       -2.18610        1.42020
C          3.51110       -4.03260       -3.23050
C          2.65570       -3.70350       -2.25910
C          2.18920       -2.28830       -2.08560
O          1.31420       -2.22610       -1.01610
I          4.15910       -6.02860       -3.45070
H          3.88700       -3.28110       -3.91800
H          2.29610       -4.47360       -1.58270
H          1.66340       -1.96710       -3.00920
H          3.08230       -1.64730       -1.91420
F          3.14850        1.24070       -1.25460
H          1.14260        1.54860       -1.12760
H          1.65090        0.17840       -2.12690
Br         1.41430       -1.12540        3.04920
Br        -0.52540       -2.96730        1.43100
Br         2.54250       -3.62260        1.54620
