23
TSA8_9_CHF2_CHF2_CHF2
C          2.53500        1.11120       -1.58420
C          1.34220        0.10070       -1.67890
C          2.51660        1.77580       -0.19070
H          3.49880        0.55700       -1.64530
C          1.80710       -1.35450       -1.74100
C          2.47050        2.06990       -2.80880
C          1.07400        2.70130       -2.95840
C         -0.02790        1.68870       -2.60590
O          0.45640        0.37140       -2.75890
C          3.58390        3.12350       -2.91940
H          2.59600        1.40200       -3.69170
H          0.91640        3.62580       -2.36220
H         -0.90650        1.85780       -3.26190
H         -0.39980        1.84430       -1.56630
F          3.65250        2.53440        0.01640
F          1.39750        2.56630       -0.00700
H          2.51370        0.98220        0.58670
F          0.70940       -2.19490       -1.71400
F          2.52070       -1.57650       -2.90490
H          2.45150       -1.58280       -0.86620
F          3.46810        4.09580       -1.94340
F          4.82630        2.52080       -2.83160
H          3.50810        3.62710       -3.90670
