17
TSA8_9_NH2_CN_F
C          1.30000       -1.69180       -0.61460
C          2.29670       -1.91250        0.49280
N          1.85680       -0.80550       -1.64050
H          0.42150       -1.18880       -0.14930
C          1.89400       -1.64430        1.85380
C          0.85730       -3.05190       -1.22210
C         -0.63460       -3.08670       -1.42850
C         -1.45530       -3.05210       -0.36810
O          3.38010       -2.42790        0.26910
F          1.52290       -3.30060       -2.41270
H          1.08000       -3.89420       -0.52970
H         -1.05270       -3.16210       -2.42650
H         -1.05170       -2.99970        0.64220
H         -2.53060       -3.08660       -0.49300
H          1.16470       -0.67730       -2.41370
H          2.05130        0.13350       -1.22240
N          1.56360       -1.41960        2.93920
