21
TSA8_9_OMe_CHF2_Cl
C          1.54040        0.11430        0.06500
C          1.27110       -1.19680        0.11860
O          1.60410        0.72970       -1.13890
H          1.68030        0.68870        0.97830
C          1.17920       -1.90660        1.45370
C         -0.44550       -3.22130       -3.71730
C         -0.49310       -2.45900       -2.62060
C          0.20430       -2.84570       -1.34930
O          1.11300       -1.85050       -1.06310
Cl        -1.24980       -2.70310       -5.18990
H          0.09400       -4.16310       -3.72020
H         -1.03670       -1.51840       -2.64620
H          0.73770       -3.81350       -1.46120
H         -0.56310       -2.94790       -0.55740
C          1.73550        2.09130       -1.27240
H          1.76240        2.34660       -2.35160
H          2.67610        2.43640       -0.79240
H          0.86380        2.60090       -0.80850
F         -0.07850       -2.43830        1.65860
F          2.11780       -2.92060        1.49690
H          1.38610       -1.20850        2.29430
