23
TSA8_9_CF3_CF3_CH2F
C          2.43070       -1.59860       -0.82200
C          1.40640       -1.56990        0.30150
C          2.56690       -0.17870       -1.42880
H          3.41530       -1.84260       -0.36330
C          1.82450       -1.86390        1.71690
C          2.09830       -2.76980       -1.81070
C          0.78520       -2.58430       -2.54480
C         -0.24830       -3.41420       -2.37210
O          0.23710       -1.30430        0.06100
C          3.21110       -3.06660       -2.83130
H          2.03790       -3.68310       -1.17410
H          0.67440       -1.76100       -3.24280
H         -0.18760       -4.25570       -1.68930
H         -1.17040       -3.25100       -2.92050
F          3.60220       -0.11880       -2.33920
F          1.39620        0.22720       -2.04360
F          2.85810        0.72220       -0.41890
F          0.73940       -1.78430        2.57240
F          2.35730       -3.13780        1.78670
F          2.77940       -0.94840        2.11890
F          3.32250       -2.07880       -3.79180
H          2.97380       -4.01480       -3.36030
H          4.18460       -3.20150       -2.31400
