22
TSA8_9_CBr3_NH2_CBr3
C          1.41380       -0.62170        2.01260
C          2.83230       -0.60080        2.56690
C          1.37920       -1.18120        0.53310
H          1.16010        0.45000        1.83630
N          3.55950       -1.73340        2.71880
C          0.32600       -1.04380        3.10500
C         -1.03150       -1.21770        2.45990
C         -2.04150       -0.36560        2.66610
O          3.34400        0.47390        2.84440
C          0.56090       -2.22270        4.12220
H          0.27930       -0.16060        3.78390
H         -1.19550       -2.07310        1.81130
H         -1.92610        0.50050        3.30950
H         -2.99840       -0.53670        2.18370
Br        -0.21400       -0.63390       -0.44720
Br         2.81900       -0.38440       -0.51400
Br         1.55710       -3.09410        0.30010
H          4.52450       -1.68680        3.07900
H          3.17350       -2.65560        2.48810
Br        -0.95520       -2.34100        5.34490
Br         0.72890       -3.99220        3.35660
Br         2.04940       -1.91560        5.33760
