16
TSA8_9_Br_I_NO2
C          1.38020       -1.01040        2.46710
C          1.05770        0.25870        1.66370
Br         0.92430       -2.54420        1.34880
H          2.47270       -1.06490        2.66040
I          2.00640        2.06020        2.37020
C          0.60410       -0.96120        3.80190
C         -0.88580       -0.73970        3.51880
C         -1.04460        0.51840        2.65440
O         -0.33570        0.40690        1.42900
N          0.81510       -2.14640        4.61490
H          0.97050       -0.07840        4.37330
H         -1.31770       -1.61180        2.98180
H         -0.73390        1.42590        3.21570
H         -2.12290        0.64790        2.42700
O          0.45460       -3.22180        4.24050
O          1.37340       -2.03260        5.80130
