20
TSA8_9_I_CF3_CBr3
C          1.92300        0.11350       -0.14510
C          1.49500        1.22020       -0.78610
I          2.18690       -0.01820        1.95450
H          2.12610       -0.80250       -0.68990
C          1.26010        1.21830       -2.28040
C          4.23780        3.80350       -0.86330
C          2.90960        3.92040       -0.69220
C          2.18840        3.20840        0.41870
O          1.22320        2.36120       -0.09750
C          5.02760        4.48580       -1.95740
H          4.79990        3.17520       -0.17780
H          2.30790        4.53140       -1.35360
H          1.68730        3.97760        1.04200
H          2.89040        2.65100        1.07150
F         -0.06070        1.53810       -2.53070
F          2.06990        2.16300       -2.88020
F          1.53080       -0.01410       -2.85180
Br         6.38850        5.58930       -1.13610
Br         5.89930        3.12670       -3.02310
Br         3.99400        5.61500       -3.16350
