22
TSA8_9_Br_OMe_OMe
C          2.36410        0.12060        1.07240
C          1.85030        1.06310        0.00710
Br         0.91800       -0.96490        1.82560
H          3.07150       -0.58850        0.59000
O          2.73400        1.85030       -0.66250
C          3.11850        0.88010        2.18490
C          2.21290        1.91490        2.83090
C          2.50440        3.21930        2.79090
O          0.65330        1.11890       -0.24060
O          3.57870       -0.06560        3.13730
H          3.99240        1.37180        1.69390
H          1.30960        1.59270        3.33820
H          3.39960        3.57990        2.29300
H          1.84180        3.93870        3.26000
C          2.40150        2.79070       -1.61920
H          2.89760        2.52820       -2.57750
H          2.76280        3.78660       -1.29010
H          1.30650        2.85620       -1.79420
C          4.39190        0.54580        4.11920
H          5.02450       -0.23670        4.58630
H          3.75910        0.99120        4.91650
H          5.08910        1.30410        3.69700
