22
TSA8_9_Br_OMe_OMe
C          1.47650       -0.34150       -0.43720
C          1.75230        0.95820       -0.28540
Br         1.10610       -1.47710        1.06280
H          1.46560       -0.78310       -1.42920
O          1.99050        1.69260       -1.40920
C          4.41560        1.62470        3.03490
C          3.10270        1.83330        2.81690
C          2.59090        2.40140        1.52490
O          1.72920        1.47720        0.97340
O          4.90730        1.08460        4.18340
H          5.13120        1.88830        2.26200
H          2.36730        1.57920        3.57340
H          3.44330        2.61590        0.85430
H          2.03860        3.34030        1.73870
C          2.15410        3.05820       -1.50530
H          2.16910        3.33560       -2.57930
H          3.12530        3.38090       -1.08850
H          1.30850        3.58710       -1.01690
C          4.15690        0.63050        5.24890
H          4.83800        0.23510        6.02980
H          3.48340       -0.18990        4.91950
H          3.56140        1.46120        5.68340
