17
TSA8_9_OH_OH_CN
C          1.60670       -0.02670        0.06850
C          1.59990       -0.64090        1.31500
O          1.64280       -0.67550       -1.13920
H          1.49910        1.05550       -0.01460
O          1.51560        0.10370        2.43650
C          2.77300       -4.71600       -0.14050
C          2.33100       -3.46040       -0.24000
C          1.25120       -2.93120        0.65660
O          1.79000       -1.97800        1.48840
C          3.91890       -5.12320       -0.91490
H          2.31460       -5.40940        0.55650
H          2.81310       -2.79290       -0.94840
H          0.80890       -3.73230        1.27750
H          0.40180       -2.50230        0.08060
H          0.86980       -1.07790       -1.59210
H          2.26720       -0.06180        3.01980
N          4.84080       -5.41570       -1.55130
