23
TSA8_9_Et_CCl3_Cl
C          1.83030        0.78290        1.53910
C          2.14460       -0.69600        1.75360
C          1.99290        1.11120        0.03620
H          0.76730        0.98560        1.77050
C          1.12900       -1.72520        2.22020
C          2.65290        1.67880        2.52080
C          4.16090        1.55270        2.42490
C          4.87510        1.98360        1.38060
O          3.28160       -1.08540        1.52470
Cl         2.16500        1.27750        4.19710
H          2.38040        2.74580        2.38570
H          4.70470        1.11740        3.25900
H          5.95470        1.87470        1.38480
H          4.41420        2.46240        0.52720
C          1.57350        2.53910       -0.32010
H          1.33420        0.42390       -0.54020
H          3.02990        0.92290       -0.30640
H          0.51690        2.71350       -0.02560
H          1.66330        2.68560       -1.41710
H          2.21780        3.29000        0.17830
Cl         1.70280       -2.46540        3.73590
Cl        -0.51390       -1.08820        2.52050
Cl         0.98920       -3.00250        0.98570
