23
TSA8_9_Et_CCl3_Cl
C          1.77720        1.03280        1.46520
C          2.26060       -0.44440        1.40540
C          1.86500        1.61400        0.02730
H          0.69280        1.07960        1.69880
C          1.62320       -1.48790        2.35540
C          2.58460        1.84650        2.51620
C          3.96340        1.23920        2.81190
C          4.49430        0.45850        1.61170
O          3.66740       -0.63780        1.22640
Cl         1.68230        2.00590        4.05200
H          2.72610        2.88350        2.16110
H          3.91560        0.52170        3.65230
H          5.48490        0.05100        1.90210
H          4.67760        1.13150        0.75270
C          1.17720        2.97580       -0.12380
H          1.33030        0.91920       -0.65840
H          2.90660        1.69550       -0.33340
H          0.11000        2.90140        0.17500
H          1.22030        3.29130       -1.18750
H          1.66750        3.76400        0.47930
Cl         2.09750       -1.32120        4.06160
Cl        -0.15660       -1.42260        2.25980
Cl         2.10800       -3.11740        1.82140
