20
TSA8_9_NH2_H_OMe
C          2.05030        2.11750        0.02140
C          0.80230        2.47720       -0.74860
N          1.70130        1.26420        1.15790
H          2.71830        1.54290       -0.65940
H          0.69980        2.16600       -1.78330
C          2.80690        3.39550        0.47150
C          4.11890        3.06900        1.16370
C          4.19110        2.44980        2.34690
O         -0.09660        3.11380       -0.22180
O          3.07710        4.16430       -0.69170
H          2.14440        3.95220        1.17820
H          5.04870        3.37440        0.69170
H          3.30340        2.14400        2.88750
H          5.15970        2.25690        2.79610
H          1.24330        0.38890        0.81360
H          1.03910        1.76130        1.79700
C          3.25260        5.52730       -0.36440
H          2.36330        5.94750        0.15510
H          3.36660        6.09940       -1.30780
H          4.18060        5.68040        0.22810
