21
TSA8_9_CBr3_I_OMe
C          1.51450       -0.54770       -0.04510
C          2.14170       -1.01320        1.06360
C          2.17130       -0.21430       -1.36730
H          0.44730       -0.37870        0.00470
I          4.23410       -1.35960        1.19380
C          0.10670       -4.34930        2.76180
C          0.37240       -3.35170        1.89660
C          0.21780       -1.90400        2.28860
O          1.45380       -1.28530        2.20760
O          0.27900       -5.66840        2.46840
H         -0.25300       -4.10480        3.75570
H          0.73120       -3.56560        0.89480
H         -0.14070       -1.82550        3.33700
H         -0.53870       -1.40430        1.65090
Br         0.83240        0.47320       -2.59220
Br         3.52130        1.17090       -1.19000
Br         2.93390       -1.79890       -2.18630
C          0.82640       -6.17160        1.30690
H          0.85400       -7.27830        1.37160
H          1.86670       -5.80000        1.18390
H          0.21050       -5.87990        0.43060
