21
TSA8_9_CBr3_I_OMe
C          1.35930       -1.81040        0.58520
C          1.90060       -0.89710        1.74870
C          2.19620       -1.78070       -0.73500
H          0.37550       -1.38280        0.29230
I          3.96360       -1.13580        2.30500
C          1.11840       -3.21410        1.18720
C          0.14400       -3.10850        2.38130
C         -0.04540       -1.66400        2.87560
O          1.18210       -0.97620        2.98180
O          0.59550       -4.10720        0.21950
H          2.11150       -3.54310        1.57270
H         -0.86620       -3.50120        2.12990
H         -0.53540       -1.69610        3.87060
H         -0.73250       -1.09310        2.21280
Br         1.16230       -2.50090       -2.21820
Br         2.60580        0.05130       -1.23840
Br         3.85180       -2.80300       -0.69770
C          1.01650       -5.42670        0.49220
H          0.69000       -5.75640        1.50330
H          2.11720       -5.52880        0.36570
H          0.53870       -6.10540       -0.24330
