18
TSA8_9_H_CN_CH2F
C          1.64370        0.04010       -0.00630
C          1.59570        1.06690        0.86840
H          1.59350       -0.99760        0.31340
H          1.51750        0.20410       -1.07890
C          1.38320        2.39040        0.34560
C          2.94790       -1.09430        4.41110
C          2.52060       -0.92420        3.15280
C          1.22050       -0.25570        2.89740
O          1.53000        0.90560        2.22070
C          4.26720       -1.75990        4.68750
H          2.32140       -0.76150        5.25000
H          3.13950       -1.22760        2.29540
H          0.68760       -0.01370        3.86400
H          0.50890       -0.89900        2.32790
N          1.21440        3.44290       -0.10300
F          4.16880       -3.03090        4.15930
H          4.36890       -1.82990        5.79160
H          5.18010       -1.23410        4.26380
