21
TSA8_9_Me_H_OMe
C          2.62100        0.79040        1.25880
C          1.22940        1.22520        0.76180
C          2.61820       -0.71160        1.56130
H          3.35600        0.99940        0.45190
H          0.93670        0.65470       -0.14480
C          2.94910        1.62320        2.52530
C          2.74060        3.12660        2.25610
C          1.33890        3.32680        1.67030
O          1.21340        2.60560        0.46280
O          4.20010        1.31400        3.13330
H          2.18200        1.35690        3.28720
H          3.46240        3.50820        1.50440
H          1.19390        4.40670        1.45840
H          0.54640        3.03630        2.40140
H          1.87040       -0.95030        2.34850
H          3.62130       -1.04000        1.90700
H          2.36190       -1.28460        0.64460
C          5.32130        1.62400        2.33130
H          6.23120        1.43880        2.93940
H          5.37760        2.69720        2.06280
H          5.39330        0.95870        1.44860
