16
TSA8_9_Br_NH2_Br
C          3.03500        1.49780        0.59680
C          1.55120        1.78210        0.50130
Br         3.32440       -0.41650        0.36980
H          3.53060        2.00280       -0.26060
N          1.07090        2.61270       -0.45460
C          3.73290        2.04230        1.87310
C          3.31820        1.39750        3.17850
C          2.14180        1.62680        3.76850
O          0.76980        1.23440        1.26320
Br         5.65760        1.80850        1.67060
H          3.57830        3.14080        1.94880
H          4.02310        0.75090        3.69350
H          1.41150        2.30100        3.33760
H          1.91170        1.15130        4.71650
H          0.05880        2.79350       -0.52840
H          1.70280        3.07860       -1.12200
