20
TSA8_9_OMe_I_NH2
C          0.58870       -0.93240       -1.21710
C          1.37620       -1.02980        0.07120
O          1.40440       -0.41670       -2.25690
H         -0.31050       -0.28980       -1.06480
I          0.72710        0.00140        1.79310
C          0.07460       -2.32700       -1.63830
C         -0.85330       -2.89570       -0.58440
C         -0.58010       -4.03100        0.06440
O          2.39420       -1.70180        0.12580
N         -0.63100       -2.23690       -2.91800
H          0.95570       -2.99440       -1.78060
H         -1.76880       -2.36100       -0.34670
H          0.32580       -4.59240       -0.14100
H         -1.26940       -4.40360        0.81500
C          1.63140        0.96720       -2.07880
H          2.04080        1.37790       -3.02410
H          2.38680        1.13960       -1.28220
H          0.69510        1.53340       -1.87430
H         -1.48230       -1.63540       -2.82380
H         -0.92910       -3.19350       -3.22010
