18
TSA8_9_Me_OH_Br
C          1.75980       -0.13700        0.14000
C          1.48200       -1.27860        0.83230
C          2.06100        0.08550       -1.31820
H          1.75810        0.78900        0.70900
O          1.21570       -1.15910        2.15490
C          4.10360       -4.12340       -1.05280
C          3.33290       -3.03220       -0.99240
C          1.83370       -3.12370       -0.84760
O          1.42920       -2.55450        0.34220
Br         6.00100       -3.95790       -1.21950
H          3.67260       -5.11870       -1.00230
H          3.80670       -2.05820       -1.03960
H          1.52860       -4.19170       -0.82110
H          1.28600       -2.69190       -1.70450
H          2.06050       -0.79580       -1.96250
H          3.06010        0.56050       -1.40660
H          1.30420        0.78590       -1.72870
H          1.22060       -0.31410        2.62740
