23
TSA8_9_Cl_Et_CHF2
C          3.16560       -0.84180       -1.71590
C          1.62030       -0.92640       -1.49570
Cl         3.74960        0.72030       -1.06220
H          3.68500       -1.63010       -1.12950
C          1.16270       -2.24080       -0.84180
C          3.46290       -0.99100       -3.22440
C          2.70640        0.08550       -4.02860
C          1.36550        0.43500       -3.36070
O          0.85350       -0.68750       -2.67700
C          4.95690       -1.02830       -3.58370
H          3.03820       -1.97140       -3.53020
H          3.27270        1.03320       -4.15810
H          0.64690        0.78100       -4.13170
H          1.48210        1.28810       -2.65210
C          1.40330       -3.47160       -1.71680
H          0.07480       -2.16340       -0.63050
H          1.68920       -2.37160        0.12780
H          0.86960       -3.37090       -2.68530
H          1.02260       -4.37460       -1.19520
H          2.48690       -3.61630       -1.90620
F          5.58330        0.16550       -3.27400
F          5.58300       -2.05880       -2.90470
H          5.06860       -1.20960       -4.67370
