21
TSA8_9_CHF2_OMe_F
C          1.86120       -0.11390       -0.04860
C          1.82260        0.98470        0.73920
C          1.70340       -1.55850        0.35850
H          2.00100        0.04650       -1.11440
O          1.91770        2.19200        0.12580
C          4.02040        1.04600        4.84180
C          3.13810        1.37670        3.89580
C          2.57930        0.34350        2.96220
O          1.68600        0.94640        2.09440
F          4.51190        1.99880        5.67610
H          4.35450        0.01890        4.95510
H          2.82210        2.41230        3.80580
H          2.04970       -0.42320        3.56530
H          3.41860       -0.13270        2.40620
F          2.86740       -2.24650        0.07390
F          1.37580       -1.73550        1.68470
H          0.87680       -1.99460       -0.23990
C          1.94050        3.39180        0.80380
H          2.01190        4.22210        0.07160
H          2.82480        3.43330        1.47460
H          1.01040        3.51570        1.39820
