21
TSA8_9_Me_Br_OMe
C          2.74360       -0.53710       -1.52590
C          1.46330       -1.31770       -1.33120
C          2.56210        0.89730       -1.01320
H          3.52800       -0.99860       -0.88540
Br         1.42470       -2.82200       -0.15230
C          3.26350       -0.64190       -2.99050
C          2.32140       -0.07490       -4.04000
C          2.07980        1.23260       -4.18110
O          0.44110       -0.99500       -1.91670
O          3.48240       -2.02040       -3.25340
H          4.22700       -0.07800       -3.03170
H          1.84700       -0.75770       -4.73910
H          1.41130        1.57630       -4.96340
H          2.55500        1.97120       -3.54650
H          1.73470        1.41970       -1.53280
H          3.50500        1.47150       -1.13380
H          2.30650        0.87580        0.06810
C          4.44390       -2.19700       -4.27400
H          5.40740       -1.69560       -4.03150
H          4.04800       -1.86450       -5.25730
H          4.66700       -3.28020       -4.35710
