21
TSA8_9_Me_Br_OMe
C          1.76650       -0.11040       -0.09260
C          1.44350       -0.74350       -1.23490
C          1.86890        1.38250        0.04970
H          1.94840       -0.70400        0.79820
Br         1.27590       -2.65020       -1.21870
C          4.04470       -0.31260       -4.65360
C          3.02860       -0.62700       -3.82960
C          2.19990        0.45600       -3.19270
O          1.20280       -0.07780       -2.39360
O          4.82990       -1.23980       -5.26860
H          4.25930        0.73430       -4.84620
H          2.79160       -1.66360       -3.61770
H          1.72170        1.05110       -3.99930
H          2.85720        1.12860       -2.60210
H          1.61560        1.92530       -0.88190
H          2.89950        1.65300        0.35940
H          1.15840        1.71710        0.83390
C          4.69810       -2.60950       -5.16530
H          5.48220       -3.09640       -5.78080
H          3.70300       -2.92790       -5.54340
H          4.82600       -2.93030       -4.10960
