21
TSA8_9_Me_Br_OMe
C          2.68650       -0.52340       -1.47430
C          1.16370       -0.75160       -1.50370
C          2.97580        0.88300       -0.91460
H          3.16860       -1.21500       -0.74780
Br         0.65170       -2.61110       -1.76520
C          3.29860       -0.74590       -2.88760
C          2.23750       -0.56390       -3.99720
C          1.16780        0.45280       -3.58920
O          0.45940        0.11430       -2.39410
O          3.81260       -2.06640       -2.95800
H          4.12040        0.00130       -2.99930
H          1.70400       -1.52280       -4.17070
H          0.43360        0.50760       -4.42040
H          1.61850        1.46020       -3.49570
H          2.55500        1.69410       -1.53620
H          4.07250        1.04110       -0.83680
H          2.54660        0.97550        0.10630
C          4.78800       -2.16880       -3.97440
H          5.64960       -1.49110       -3.78550
H          4.34380       -1.99440       -4.97860
H          5.18760       -3.20340       -3.96980
