21
TSA8_9_OMe_Me_Br
C          0.75600       -0.88120       -1.04210
C          1.61530       -1.29030        0.13590
O          1.55520       -0.22300       -2.01130
H         -0.08430       -0.23030       -0.69680
C          1.28860       -0.80340        1.51490
C          0.10960       -2.11800       -1.69490
C         -0.78840       -2.83980       -0.72040
C         -0.57370       -4.10980       -0.36600
O          2.58040       -2.02020       -0.03640
Br        -0.96720       -1.58290       -3.22120
H          0.91080       -2.79360       -2.06980
H         -1.63380       -2.30880       -0.29180
H          0.26130       -4.67360       -0.77030
H         -1.24040       -4.59490        0.33940
C          1.72900        1.13630       -1.67170
H          2.32450        1.62170       -2.47170
H          2.30230        1.24470       -0.72530
H          0.75640        1.67420       -1.62480
H          2.01880       -1.19740        2.25390
H          0.27170       -1.14660        1.79850
H          1.31910        0.30580        1.53690
