22
TSA8_9_OMe_CH2F_OH
C          0.83170       -0.97420       -1.16160
C          1.58700       -1.64580       -0.03810
O          1.76990       -0.27560       -1.96720
H          0.05590       -0.29640       -0.72480
C          1.29380       -1.30460        1.39500
C          0.07070       -1.96920       -2.07150
C         -1.03420       -2.72770       -1.36330
C         -0.81350       -3.63320       -0.40450
O          2.46430       -2.45680       -0.29740
O         -0.50620       -1.22980       -3.11860
H          0.80390       -2.69460       -2.49830
H         -2.06240       -2.55120       -1.66780
H          0.18680       -3.88150       -0.07180
H         -1.65140       -4.14970        0.05120
C          1.74200        1.10700       -1.68880
H          2.50890        1.60620       -2.31570
H          1.99990        1.30770       -0.62540
H          0.75800        1.54840       -1.96230
F         -0.02400       -1.59500        1.69370
H          1.47520       -0.22340        1.56240
H          1.95240       -1.88550        2.07580
H         -0.61850       -1.85000       -3.88600
