15
TSA8_9_I_OH_F
C          2.84420        0.58600        1.46990
C          1.35990        0.62990        1.75330
I          3.17730       -0.28690       -0.46540
H          3.20520        1.63500        1.40410
O          0.73440        1.80890        1.96090
C          3.71330       -0.09370        2.55660
C          3.48520       -1.57490        2.75530
C          2.40070       -2.08000        3.34970
O          0.69680       -0.39420        1.74170
F          5.03760        0.07850        2.18950
H          3.57750        0.42490        3.53070
H          4.26310       -2.26500        2.44040
H          1.61270       -1.44160        3.73110
H          2.30780       -3.15300        3.48110
H          1.21110        2.65080        1.95990
