15
TSA8_9_I_OH_F
C          2.99280        0.32920        1.48080
C          1.45330        0.24990        1.69550
I          3.65600       -1.10460        0.01610
H          3.26150        1.31400        1.03990
O          0.94750        1.54110        1.85930
C          3.68050        0.13660        2.83210
C          3.28980       -1.21420        3.44990
C          1.88060       -1.64760        3.00740
O          1.04390       -0.52720        2.82430
F          5.05590        0.24720        2.73010
H          3.31140        0.94010        3.50650
H          3.99100       -2.03310        3.17860
H          1.45160       -2.32590        3.77320
H          1.91260       -2.24100        2.06720
H          0.36150        1.68120        1.07280
