15
TSA8_9_I_OH_H
C          1.85110        0.00270        0.16120
C          1.54960        0.26200        1.45530
I          2.06900       -1.87860       -0.79370
H          1.95740        0.83880       -0.52330
O          1.37420        1.54810        1.83840
C          4.02730       -1.43190        4.40960
C          3.55930       -1.20370        3.17850
C          2.23070       -1.74060        2.71660
O          1.37850       -0.69390        2.40970
H          4.98710       -1.02400        4.70890
H          3.46260       -2.01980        5.12690
H          4.15290       -0.60800        2.49110
H          1.75550       -2.34210        3.52040
H          2.38170       -2.42000        1.86550
H          1.47600        2.29720        1.23490
