19
TSA8_9_Cl_NO2_CH2F
C          1.82200       -0.08240        0.00810
C          1.51820       -1.31470        0.50030
Cl         1.69400        0.47440       -1.65830
H          2.16790        0.68870        0.68780
N          1.65380       -1.54780        1.90440
C          2.74920       -3.78320       -2.87920
C          2.36540       -2.67670       -2.22450
C          0.98820       -2.54990       -1.61940
O          1.06320       -2.36610       -0.25170
C          4.11620       -3.89200       -3.48370
H          2.06800       -4.62310       -2.98460
H          3.06380       -1.85150       -2.13290
H          0.41630       -3.48470       -1.79950
H          0.40190       -1.73960       -2.09310
O          1.38200       -2.61980        2.35440
O          2.05890       -0.59680        2.72000
F          4.29310       -2.90100       -4.43210
H          4.22990       -4.88220       -3.97290
H          4.89010       -3.79080       -2.69400
