19
TSA8_9_Cl_NO2_CH2F
C          2.91510       -1.72430       -0.78600
C          1.61810       -1.71850        0.07670
Cl         2.97610       -0.17840       -1.68320
H          3.82070       -1.76860       -0.14190
N          1.92370       -1.79810        1.49100
C          2.90260       -2.95360       -1.72030
C          1.60000       -2.99480       -2.53870
C          0.39870       -2.56830       -1.67620
O          0.69460       -2.73500       -0.30440
C          4.14760       -3.09340       -2.60770
H          2.88720       -3.84440       -1.05210
H          1.61870       -2.35630       -3.44950
H         -0.48680       -3.17530       -1.95680
H          0.12040       -1.50730       -1.88110
O          1.48540       -2.68540        2.16050
O          2.64890       -0.85810        2.05620
F          4.25270       -2.04970       -3.50930
H          4.09230       -4.04550       -3.17750
H          5.06020       -3.12050       -1.97520
