21
TSA8_9_CBr3_OH_CF3
C          1.57150       -0.70770        2.19200
C          2.79630       -1.57880        2.46650
C          1.39410       -0.39350        0.66920
H          1.79610        0.28410        2.64750
O          2.91240       -2.85230        2.03080
C          0.26980       -1.19590        2.92760
C         -0.26880       -2.52210        2.43300
C         -1.47210       -2.62470        1.85760
O          3.72200       -1.10190        3.10460
C          0.45880       -1.27430        4.45960
H         -0.50330       -0.41490        2.76250
H          0.31640       -3.42430        2.56160
H         -2.10450       -1.75430        1.71300
H         -1.83230       -3.59230        1.52330
Br        -0.01220        0.91930        0.38510
Br         3.01920        0.41380       -0.03100
Br         0.98920       -1.91370       -0.47530
H          2.24400       -3.30360        1.50550
F          1.38020       -2.24870        4.80270
F          0.88970       -0.05520        4.95220
F         -0.74870       -1.58240        5.06300
