29
TSA8_9_Et_Et_Me
C          2.12890       -0.66660       -1.77210
C          0.93300       -1.59790       -1.66820
C          1.87690        0.50500       -0.78110
H          3.03230       -1.21690       -1.42380
C          1.12010       -3.00870       -1.16030
C          2.32950       -0.25470       -3.26940
C          3.51140        0.66120       -3.47490
C          3.37510        1.87510       -4.02090
O         -0.17650       -1.19500       -1.99350
C          2.56080       -1.49150       -4.15720
H          1.40180        0.24940       -3.62360
H          4.50120        0.32320       -3.18190
H          2.40270        2.24720       -4.33170
H          4.24410        2.50920       -4.16030
C          3.08760        1.39170       -0.47970
H          1.59910        0.05700        0.19990
H          1.02350        1.12960       -1.12420
H          3.93620        0.77250       -0.11830
H          2.81660        2.11370        0.31940
H          3.40750        1.99090       -1.34710
C         -0.18400       -3.80620       -1.11880
H          1.54460       -2.96570       -0.13480
H          1.83940       -3.53640       -1.82200
H         -0.91600       -3.31310       -0.44380
H          0.01710       -4.82920       -0.73770
H         -0.61950       -3.88560       -2.13800
H          1.69780       -2.18720       -4.11470
H          3.47450       -2.03800       -3.83620
H          2.68510       -1.18320       -5.21780
