29
TSA8_9_Et_Et_Me
C          1.86830       -0.20670       -0.08990
C          1.46140       -0.79620       -1.23690
C          1.88170        1.28300        0.14400
H          2.19200       -0.82950        0.73970
C          1.43430       -2.30320       -1.34410
C          2.24330       -1.28870       -4.74470
C          2.78230       -0.37270       -3.92700
C          1.92140        0.59610       -3.16440
O          1.05460       -0.06520       -2.30920
C          3.08940       -2.25740       -5.51560
H          1.16450       -1.34080       -4.86260
H          3.86080       -0.31230       -3.80850
H          1.32690        1.19140       -3.88900
H          2.57310        1.29350       -2.60030
C          3.30010        1.76330        0.42890
H          1.23730        1.50780        1.01980
H          1.47260        1.84770       -0.71760
H          3.71040        1.24770        1.32350
H          3.29110        2.85680        0.62170
H          3.95770        1.55970       -0.44300
C          0.01810       -2.80140       -1.61220
H          1.80270       -2.78270       -0.41050
H          2.09870       -2.62150       -2.17400
H         -0.65330       -2.51400       -0.77590
H          0.02280       -3.90850       -1.69790
H         -0.37310       -2.37410       -2.56010
H          2.81110       -3.29300       -5.23070
H          4.17270       -2.11200       -5.31530
H          2.90740       -2.11860       -6.60150
