20
TSA8_9_CBr3_I_CCl3
C          1.50500       -0.24250       -2.42350
C          1.25210       -1.00700       -1.13400
C          1.60820        1.29650       -2.11580
H          2.52480       -0.54040       -2.74560
I          2.70150       -2.35940       -0.39920
C          0.51330       -0.81260       -3.52380
C         -0.95350       -0.65150       -3.15510
C         -1.73290       -1.69870       -2.86370
O          0.21800       -0.85820       -0.50200
C          0.72170       -0.38940       -5.01050
H          0.74950       -1.90290       -3.52200
H         -1.40220        0.33300       -3.13780
H         -1.34300       -2.71180       -2.87160
H         -2.77680       -1.54320       -2.61310
Br        -0.05920        2.14470       -1.59440
Br         2.84420        1.59540       -0.63710
Br         2.41830        2.33000       -3.54250
Cl        -0.19330       -1.50440       -6.06790
Cl         0.10770        1.24460       -5.39880
Cl         2.43170       -0.53050       -5.50550
