16
TSA8_9_I_Cl_NH2
C          1.80730        0.13630        0.01440
C          1.45740        1.34670        0.48410
I          2.02570       -1.63400        1.16020
H          1.95580        0.01200       -1.05370
Cl         1.23250        2.65830       -0.66290
C          3.03970        3.82570        2.51450
C          3.28580        2.51010        2.58040
C          2.17570        1.52030        2.80540
O          1.22980        1.60950        1.79810
N          4.08860        4.75390        2.30060
H          2.02350        4.19470        2.62470
H          4.30190        2.14100        2.47170
H          1.68590        1.74590        3.77600
H          2.59990        0.50350        2.87340
H          5.06420        4.44050        2.18880
H          3.87780        5.76070        2.25280
