16
TSA8_9_I_Cl_NH2
C          2.57930        1.89720        0.49160
C          1.14790        1.42180        0.88470
I          3.98550        0.26440        0.61990
H          2.59950        2.18220       -0.58250
Cl        -0.05180        2.25590       -0.14090
C          2.94540        3.09350        1.38000
C          2.90670        2.68940        2.86740
C          1.88190        1.56690        3.11370
O          0.78060        1.68830        2.24150
N          4.22940        3.69000        1.01090
H          2.15090        3.85600        1.21770
H          3.88500        2.33050        3.25520
H          1.54150        1.61180        4.16850
H          2.33880        0.56110        2.99150
H          5.01220        3.02940        1.22060
H          4.37690        4.55980        1.57230
