23
TSA8_9_Et_CF3_Br
C          2.52570        0.93030        1.00370
C          1.12090        1.60440        0.79210
C          2.32490       -0.61080        0.97100
H          3.19670        1.18090        0.15200
C          1.11900        2.59970       -0.37250
C          3.13250        1.52760        2.29550
C          2.20920        1.28870        3.49560
C          0.73370        1.41070        3.07690
O          0.61250        2.25980        1.95610
Br         4.97930        1.07790        2.69670
H          3.16400        2.62790        2.13510
H          2.35930        0.30190        3.98370
H          0.14510        1.80920        3.92850
H          0.28490        0.41880        2.84830
C          3.60820       -1.43730        1.00560
H          1.82030       -0.85570        0.01020
H          1.66590       -0.95780        1.79090
H          4.29290       -1.12730        0.18810
H          3.35400       -2.50940        0.86610
H          4.11440       -1.35580        1.98390
F         -0.15650        3.10570       -0.54330
F          1.98810        3.64440       -0.11260
F          1.50160        1.96440       -1.54050
