17
TSA8_9_F_Cl_Me
C          1.91560        0.00220       -0.22960
C          1.38830        0.46410       -1.37890
F          2.49580        0.80600        0.69790
H          1.87110       -1.06060       -0.01350
Cl         0.63990       -0.69430       -2.46710
C          4.23410        3.61450       -2.09090
C          3.53030        2.71210       -1.39220
C          2.04130        2.84670       -1.19170
O          1.37520        1.77500       -1.75830
C          5.71060        3.45700       -2.28220
H          3.74030        4.47590       -2.53220
H          4.04550        1.85870       -0.96200
H          1.67560        3.77170       -1.68670
H          1.79000        2.93930       -0.11530
H          5.92370        2.50560       -2.81360
H          6.22210        3.45100       -1.29660
H          6.10310        4.30150       -2.88640
