20
TSA8_9_Cl_CH2F_CBr3
C          3.15390        0.67050       -1.46980
C          1.61280        0.42660       -1.59900
Cl         3.49930        1.26630        0.18360
H          3.69150       -0.29770       -1.54950
C          1.32220       -0.85850       -2.37560
C          3.59070        1.65250       -2.58660
C          2.80760        2.97730       -2.44540
C          1.41180        2.74670       -1.84300
O          0.90500        1.49270       -2.23860
C          5.11850        1.87620       -2.77380
H          3.24230        1.17980       -3.53210
H          3.31600        3.73860       -1.81640
H          0.73220        3.55820       -2.17490
H          1.43250        2.80820       -0.73180
F         -0.04210       -1.08080       -2.41350
H          1.80400       -1.72320       -1.87230
H          1.70690       -0.78180       -3.41470
Br         5.42960        2.97050       -4.34950
Br         5.99790        2.76740       -1.28490
Br         6.03160        0.19010       -3.08440
