16
TSA8_9_Cl_OH_OH
C          1.75320       -0.03950        0.15780
C          1.55780       -1.02080        1.05180
Cl         1.74310       -0.35400       -1.57290
H          1.92260        0.97910        0.49320
O          1.56570       -0.75490        2.37880
C          2.40700       -3.98560        2.84810
C          3.05800       -3.47830        1.79700
C          2.36170       -3.21320        0.49100
O          1.34090       -2.29200        0.63720
O          3.06480       -4.20990        4.00230
H          1.34700       -4.21910        2.77710
H          4.11770       -3.25330        1.88060
H          1.93890       -4.16360        0.10260
H          3.09720       -2.83280       -0.25130
H          1.71280        0.13520        2.73080
H          2.60230       -4.57670        4.76920
