20
TSA8_9_CBr3_I_CHF2
C          2.04640        0.00670        0.03020
C          1.91510       -0.73500        1.16440
C          1.84960       -0.20910       -1.46560
H          2.40700        1.01480        0.21780
I          2.51580        0.21420        2.95840
C          0.47920       -5.18630        0.70180
C          0.96510       -4.02020        0.24920
C          0.44060       -2.69210        0.73200
O          1.46000       -2.00540        1.35100
C          1.02800       -6.49360        0.21260
H         -0.32200       -5.20040        1.43520
H          1.77000       -4.03710       -0.47530
H         -0.35730       -2.86140        1.48610
H         -0.03120       -2.09490       -0.06720
Br         0.49110        1.02480       -2.07910
Br         3.51300        0.30400       -2.31580
Br         1.45420       -1.94120       -2.22280
F          0.84890       -6.59920       -1.15480
F          2.37640       -6.58080        0.50880
H          0.49550       -7.33100        0.71100
