20
TSA8_9_CBr3_I_CHF2
C          2.17800       -2.27730        0.27130
C          1.49170       -1.18040        1.15480
C          2.30820       -1.77640       -1.21080
H          3.22020       -2.40950        0.63540
I          2.87740       -0.05410        2.34540
C          1.44920       -3.63880        0.56000
C         -0.08370       -3.51030        0.51430
C         -0.54810       -2.19260        1.15150
O          0.46200       -1.67950        1.99250
C          1.91910       -4.89830       -0.18000
H          1.67940       -3.83690        1.63310
H         -0.54730       -3.63320       -0.48700
H         -1.47690       -2.37450        1.73040
H         -0.82450       -1.44320        0.37320
Br         0.61550       -1.59520       -2.14400
Br         3.15900       -0.02850       -1.28550
Br         3.48270       -2.88650       -2.28890
F          1.55200       -4.87220       -1.51240
F          3.28870       -5.05170       -0.06100
H          1.43210       -5.78640        0.27720
