21
TSA8_9_CCl3_CBr3_CN
C          1.86080       -0.24310       -1.99100
C          1.23240       -1.64290       -1.64290
C          2.02320        1.05450       -0.99260
H          1.37650       -0.41960       -1.04420
C          1.85280       -2.74140       -0.79570
C          1.28880        0.04810       -3.48550
C          0.37950        1.23550       -3.40780
C         -0.86230        1.09320       -2.93910
O          0.07330       -1.87590       -2.00410
C          2.28570        0.25780       -4.58210
H          0.75010       -0.78260       -3.90250
H          0.74140        2.23020       -3.66020
H         -1.23070        0.10910       -2.67890
H         -1.47830        1.96210       -2.80590
Cl         2.45210        2.62230       -1.73400
Cl         0.53690        1.44950        0.02960
Cl         3.35450        0.80110        0.16600
Br         0.75370       -2.97390        0.79350
Br         1.80720       -4.38790       -1.81050
Br         3.67220       -2.42610       -0.23370
N          3.01910        0.43190       -5.47360
