21
TSA8_9_CCl3_CBr3_CN
C          1.56810       -0.02940       -0.04420
C          1.28320       -1.09920       -1.04590
C          1.64170        1.47700        0.04970
H          1.48060       -0.42510        0.95270
C          1.70110       -2.52690       -0.61610
C          0.73380        0.25520       -5.29920
C          1.02180        0.45070       -4.00190
C          0.07390        0.03980       -2.89890
O          0.52840       -1.10400       -2.24940
C          1.73950        0.48740       -6.30760
H         -0.22550       -0.15320       -5.61890
H          1.98770        0.85160       -3.73770
H         -0.88070       -0.25090       -3.34900
H         -0.18590        0.87140       -2.22840
Cl         1.59180        2.46250       -1.42920
Cl         0.62340        2.30570        1.25760
Cl         3.30830        1.56880        0.68230
Br         0.55170       -2.98400        0.81590
Br         1.36200       -3.85030       -2.00020
Br         3.55410       -2.83990       -0.00420
N          2.52900        0.66430       -7.13530
