19
TSA8_9_F_NO2_Me
C          1.65880       -0.04540        0.03100
C          1.43060       -1.26440        0.57370
F          1.62020        0.19700       -1.30400
H          1.87100        0.80720        0.66810
N          1.45970       -1.41700        1.99410
C          2.96310       -3.52490       -2.86500
C          2.47990       -2.49250       -2.15740
C          1.09880       -2.53150       -1.54640
O          1.14260       -2.37690       -0.17140
C          4.32400       -3.46610       -3.48730
H          2.36680       -4.42170       -3.00760
H          3.09170       -1.60520       -2.03570
H          0.62460       -3.51370       -1.75920
H          0.44000       -1.76030       -1.99880
O          1.24720       -2.48600        2.47970
O          1.68130       -0.38730        2.78550
H          5.09780       -3.33290       -2.70290
H          4.37520       -2.61930       -4.20450
H          4.52580       -4.41030       -4.03660
