19
TSA8_9_F_NO2_Me
C          2.87040       -1.41730       -0.78040
C          1.59870       -1.50170        0.11630
F          2.76440       -0.29470       -1.58430
H          3.78680       -1.30470       -0.15950
N          1.93930       -1.63470        1.51160
C          2.96470       -2.67480       -1.65920
C          1.66540       -2.84460       -2.47030
C          0.43660       -2.43110       -1.64200
O          0.71210       -2.54990       -0.26330
C          4.19110       -2.66530       -2.57520
H          3.05000       -3.54770       -0.97430
H          1.64760       -2.25610       -3.41460
H         -0.42720       -3.06870       -1.92120
H          0.13470       -1.38250       -1.87800
O          2.51250       -2.60480        1.90780
O          1.59540       -0.68960        2.35690
H          5.11910       -2.59430       -1.96940
H          4.15320       -1.80250       -3.27460
H          4.22960       -3.60360       -3.16900
