22
TSA8_9_NO2_CCl3_CH2F
C          2.14180       -0.28110       -0.11430
C          1.70300       -0.75670        1.10140
N          1.77720       -0.65250       -1.44840
H          2.87810        0.51000       -0.09260
C          2.23920       -0.14580        2.39850
C          1.33600       -5.02090        0.52060
C          1.29100       -3.73880        0.12810
C          0.23230       -2.79260        0.63800
O          0.80720       -1.76530        1.35430
C          2.39750       -5.95130        0.01840
H          0.59870       -5.40750        1.21900
H          2.03940       -3.37080       -0.56670
H         -0.44330       -3.33350        1.33440
H         -0.44500       -2.41500       -0.14410
O          2.32560       -0.10760       -2.35760
O          0.80340       -1.48090       -1.72450
Cl         3.03530       -1.43180        3.34260
Cl         3.41840        1.19750        2.25340
Cl         0.86670        0.47450        3.35160
F          2.31710       -6.06260       -1.35830
H          2.25760       -6.95510        0.47020
H          3.40090       -5.56800        0.30070
