21
TSA8_9_I_OMe_CCl3
C          3.67390       -0.13460        1.59670
C          2.43570        0.70960        1.76970
I          3.68280       -0.85650       -0.43570
H          4.53810        0.55460        1.69240
O          2.57220        2.03460        2.03180
C          3.77560       -1.21990        2.71690
C          2.67200       -2.25230        2.57420
C          1.72500       -2.41410        3.50360
O          1.32490        0.20520        1.66770
C          5.16460       -1.92090        2.83110
H          3.65000       -0.67320        3.68040
H          2.64690       -2.88540        1.69240
H          1.70880       -1.80600        4.40250
H          0.95390       -3.16490        3.36520
C          1.51200        2.89420        2.22450
H          1.90240        3.91520        2.41350
H          0.91420        2.57120        3.10330
H          0.86860        2.91850        1.31920
Cl         6.47010       -0.72520        3.06940
Cl         5.18410       -2.98250        4.26890
Cl         5.59230       -2.93950        1.42820
