21
TSA8_9_I_OMe_CCl3
C          1.95690       -0.09320       -0.01690
C          1.85250        0.54650        1.16980
I          1.82190       -2.15740       -0.50190
H          2.11990        0.51720       -0.90010
O          1.95730        1.89940        1.13970
C          4.07930       -1.85240        3.89550
C          3.38730       -1.59460        2.77080
C          1.90190       -1.34180        2.80150
O          1.64540       -0.05230        2.38280
C          5.57280       -2.07940        3.95740
H          3.54500       -1.89280        4.84120
H          3.88480       -1.53960        1.81060
H          1.51930       -1.43740        3.84020
H          1.34070       -2.08230        2.20660
C          1.96460        2.68470        2.27220
H          2.07020        3.74840        1.97750
H          2.82470        2.40790        2.92020
H          1.01570        2.55780        2.83580
Cl         6.28300       -0.85340        5.03420
Cl         5.87930       -3.68870        4.65110
Cl         6.41280       -1.98200        2.38040
