21
TSA8_9_I_OMe_CCl3
C          3.48530       -0.18920        1.64620
C          2.00130        0.23900        1.68430
I          3.78650       -1.01730       -0.31120
H          4.14790        0.69690        1.73020
O          1.73140        1.55800        1.25500
C          3.75370       -1.11990        2.86390
C          2.65230       -2.19360        2.98180
C          1.24470       -1.58420        2.78900
O          1.28480       -0.16970        2.83600
C          5.18670       -1.70320        3.01400
H          3.61460       -0.45780        3.74980
H          2.78120       -3.05080        2.28690
H          0.57540       -1.96940        3.58530
H          0.79810       -1.92570        1.82440
C          1.92560        2.46260        2.32070
H          1.92870        3.49210        1.90760
H          2.90600        2.32240        2.82730
H          1.08810        2.39700        3.04830
Cl         6.41030       -0.40510        2.94880
Cl         5.34350       -2.49000        4.60980
Cl         5.60310       -2.93370        1.78930
