19
TSA8_9_H_CH2F_NO2
C          2.09500        2.02340        0.73030
C          1.06660        2.67350       -0.15780
H          1.59950        1.18360        1.26200
H          2.91950        1.59850        0.11550
C          1.27060        2.72880       -1.64400
C          2.67970        3.03270        1.74360
C          3.64690        2.36180        2.69490
C          3.26170        1.38700        3.52600
O          0.05640        3.15090        0.33770
N          3.34950        4.11360        1.04180
H          1.84910        3.45460        2.35340
H          4.68380        2.68550        2.72460
H          2.23420        1.03780        3.54610
H          3.97980        0.93470        4.20220
F          0.20320        3.35720       -2.26220
H          1.36350        1.69840       -2.04570
H          2.19960        3.29320       -1.86860
O          4.28380        3.89040        0.33050
O          2.92590        5.35140        1.18350
