18
TSA8_9_CN_Cl_Me
C          1.63480       -0.01230       -0.06640
C          1.47030        0.21480       -1.39650
C          1.80970        0.97920        0.96560
H          1.59620       -1.04030        0.27330
Cl         1.40350       -1.19850       -2.42640
C          3.52820        3.99520       -1.75880
C          2.84910        2.99780       -1.18300
C          1.41790        2.69250       -1.52580
O          1.33690        1.41690       -2.03450
C          4.93800        4.30560       -1.34760
H          3.06010        4.60820       -2.52040
H          3.35090        2.39200       -0.44030
H          1.03030        3.41000       -2.29200
H          0.76160        2.79700       -0.63430
N          1.95300        1.75360        1.82090
H          5.60330        3.43460       -1.52130
H          4.96430        4.57400       -0.26840
H          5.31900        5.17130       -1.92860
