26
TSA8_9_Et_CCl3_CHF2
C          1.91810        0.07170       -0.17090
C          1.46370        0.86410       -1.19170
C          1.87460        0.26310        1.32810
H          2.37970       -0.87340       -0.42250
C          1.61200        0.41730       -2.64410
C          2.05450        4.89660        0.43380
C          1.86910        3.56800        0.46890
C          0.58930        2.93380       -0.01750
O          0.82950        2.07480       -1.06940
C          3.32630        5.52030        0.92570
H          1.27550        5.54910        0.04910
H          2.66080        2.93950        0.85840
H         -0.09160        3.72770       -0.39240
H          0.02020        2.42920        0.78450
C          3.28420        0.18000        1.90860
H          1.26870       -0.56080        1.76190
H          1.42680        1.19740        1.67030
H          3.74670       -0.80080        1.66370
H          3.23960        0.28040        3.01360
H          3.92320        0.99090        1.50100
Cl         2.52620        1.66010       -3.53530
Cl         2.44050       -1.14730       -2.93030
Cl        -0.01090        0.28920       -3.36980
F          3.51480        5.21730        2.26190
F          4.39880        5.05040        0.19000
H          3.26700        6.62310        0.81200
