26
TSA8_9_Et_CCl3_CHF2
C          2.33640        1.74820       -0.15170
C          1.08890        1.39160       -1.04680
C          2.25400        0.88370        1.13470
H          3.25720        1.43920       -0.69250
C          1.43280        0.71670       -2.38790
C          2.36380        3.30020        0.02990
C          1.01530        3.82610        0.56260
C         -0.15470        3.01460       -0.00400
O          0.20360        2.48650       -1.25970
C          3.53420        3.93250        0.79730
H          2.45910        3.68360       -1.01150
H          0.92860        3.82710        1.67070
H         -1.04910        3.66430       -0.09530
H         -0.44760        2.19370        0.69340
C          3.58890        0.67530        1.85660
H          1.94970       -0.14370        0.83430
H          1.47670        1.27070        1.82630
H          4.32450        0.21210        1.16500
H          3.43430       -0.01640        2.71160
H          4.02840        1.59590        2.25920
Cl         2.35230        1.82450       -3.44270
Cl         2.38210       -0.77270       -2.13300
Cl        -0.07090        0.25660       -3.22660
F          3.42020        3.74530        2.16110
F          4.74210        3.43570        0.34170
H          3.51880        5.03030        0.62570
