18
TSA8_9_OMe_Br_Cl
C          1.45760        0.21250       -0.01440
C          1.04440       -0.99130        0.38450
O          1.62310        0.46960       -1.33360
H          1.64210        0.99230        0.72180
Br         0.79530       -1.30290        2.26720
C         -0.99000       -4.20350       -2.30060
C         -0.95200       -3.21550       -1.40060
C          0.12870       -3.13020       -0.36210
O          0.81620       -1.94920       -0.55190
Cl        -2.26030       -4.25100       -3.51160
H         -0.23690       -4.98580       -2.30430
H         -1.71430       -2.44210       -1.42020
H          0.84030       -3.97790       -0.45680
H         -0.34480       -3.18360        0.63950
C          1.95140        1.71870       -1.80670
H          2.02830        1.67870       -2.91270
H          2.92650        2.04490       -1.38700
H          1.15960        2.44820       -1.53050
