18
TSA8_9_OMe_Br_Cl
C          0.47050       -0.78120       -1.21440
C          1.18910       -1.17420        0.10300
O          1.36570       -0.16170       -2.12010
H         -0.38400       -0.11090       -0.95280
Br         0.30360       -0.53740        1.71980
C         -0.12970       -2.02770       -1.88780
C         -0.76950       -2.87800       -0.80280
C          0.35980       -3.38940        0.11780
O          1.51390       -2.54920        0.18520
Cl        -1.31800       -1.56660       -3.13540
H          0.66810       -2.63250       -2.37420
H         -1.48810       -2.24290       -0.23930
H          0.70760       -4.34200       -0.33450
H         -0.02840       -3.63030        1.13030
C          1.53700        1.19870       -1.78370
H          2.20810        1.66290       -2.53590
H          2.02710        1.30910       -0.79200
H          0.57540        1.75580       -1.82740
