27
TSA8_9_OMe_Et_CF3
C          1.60890        0.02020       -0.03110
C          1.40040        0.37550       -1.32100
O          1.39880        0.87320        0.99820
H          1.94180       -0.99200        0.18900
C          1.63230       -0.64510       -2.41010
C          3.08370        3.65840       -1.35340
C          2.11530        3.30650       -0.49130
C          0.79820        2.76700       -0.98180
O          0.97260        1.61150       -1.72360
C          4.41320        4.21430       -0.91770
H          2.91170        3.54650       -2.42070
H          2.26060        3.41600        0.57900
H          0.33340        3.53610       -1.63410
H          0.09640        2.58560       -0.14100
C          1.51890        0.51760        2.32510
H          2.30080        1.14310        2.80250
H          1.78850       -0.55420        2.45070
H          0.55130        0.69980        2.83660
C          0.33950       -0.92560       -3.17050
H          2.00730       -1.60810       -1.99870
H          2.39760       -0.25230       -3.11290
H         -0.42690       -1.33930       -2.48100
H          0.53250       -1.66830       -3.97300
H         -0.05170        0.00460       -3.63510
F          4.51130        4.30410        0.46050
F          5.42090        3.39150       -1.38410
F          4.57410        5.47490       -1.45990
