20
TSA8_9_CHF2_I_CHF2
C          1.44630       -1.86650       -1.23340
C          0.89700       -1.32410        0.06890
C          1.63570       -0.69820       -2.22880
H          2.46330       -2.25880       -1.01190
I          2.04380       -1.44880        1.83760
C          0.58640       -3.08470       -1.71580
C         -0.85790       -2.72230       -2.00380
C         -1.86950       -3.22930       -1.29140
O         -0.20500       -0.79970        0.11800
C          1.17740       -3.82730       -2.92930
H          0.61880       -3.81460       -0.87370
H         -1.08840       -2.03930       -2.81450
H         -1.69180       -3.91970       -0.47270
H         -2.89140       -2.95110       -1.52740
F          2.33840       -1.09280       -3.34990
F          0.42940       -0.13830       -2.60700
H          2.24310        0.09320       -1.73850
F          0.49010       -5.01300       -3.12390
F          1.07790       -3.08120       -4.08910
H          2.24290       -4.07690       -2.73910
