20
TSA8_9_CHF2_I_CHF2
C          1.41970       -2.11140       -1.46630
C          1.00400       -1.73120       -0.03030
C          1.31120       -0.85570       -2.35980
H          2.49310       -2.40130       -1.45560
I          1.71630       -3.05310        1.51810
C          0.55210       -3.33120       -1.90100
C         -0.93540       -3.01240       -1.69980
C         -1.16600       -2.55780       -0.25400
O         -0.37840       -1.42370        0.07180
C          0.80830       -3.86950       -3.31910
H          0.80690       -4.16600       -1.21010
H         -1.26730       -2.21570       -2.39870
H         -0.98180       -3.39210        0.45620
H         -2.23680       -2.28790       -0.14270
F          2.04720        0.17390       -1.79810
F          1.83190       -1.09560       -3.61650
H          0.26120       -0.51200       -2.45430
F          0.38240       -2.98810       -4.29580
F          2.15230       -4.14710       -3.49330
H          0.23550       -4.81190       -3.45440
