19
TSA8_9_NO2_H_Me
C          1.43920        1.06610       -2.08740
C          1.50530       -0.31270       -1.47480
N          1.19180        2.04870       -1.03610
H          2.44030        1.28130       -2.52430
H          2.42510       -0.88500       -1.53390
C          0.42400        1.09170       -3.27660
C         -0.99600        0.75950       -2.86100
C         -1.62990       -0.32110       -3.32940
O          0.54240       -0.78950       -0.89470
C          0.44760        2.42580       -4.03840
H          0.77730        0.32210       -4.00140
H         -1.52620        1.40580       -2.17030
H         -1.14660       -1.00130       -4.02470
H         -2.64640       -0.53360       -3.01530
O          1.96790        2.14510       -0.13360
O          0.14150        2.84020       -1.05430
H          0.09260        3.27360       -3.42040
H         -0.21150        2.35940       -4.93070
H          1.47770        2.64910       -4.38790
