20
TSA8_9_I_CHF2_CH2F
C          2.13910        2.07860        0.64950
C          0.98930        2.72830       -0.08360
I          1.50990        0.10150        1.22270
H          3.00250        1.96070       -0.04230
C          1.13140        3.12460       -1.52650
C          2.58430        2.90840        1.88030
C          3.71960        2.20810        2.59390
C          3.61710        1.80700        3.86510
O         -0.06790        2.92440        0.49930
C          3.05320        4.31550        1.47410
H          1.71390        3.01830        2.56630
H          4.64770        2.02610        2.05890
H          2.70730        1.97010        4.43480
H          4.45230        1.30810        4.34530
F         -0.04380        3.68340       -1.99800
F          2.15370        4.04510       -1.66220
H          1.36830        2.22550       -2.13280
F          3.42910        5.03510        2.59510
H          2.23450        4.87000        0.97020
H          3.91830        4.25270        0.77880
