24
TSA8_9_CN_CHF2_Et
C          2.94620       -0.81740        1.15690
C          1.65950       -0.10830        1.76040
C          2.40910       -1.42840       -0.08810
H          3.67440       -0.06840        0.78560
C          1.54220        1.32300        2.23140
C          3.62070       -2.07200        1.99720
C          2.61770       -2.35890        3.04170
C          1.55870       -3.08910        2.72290
O          0.60390       -0.74000        1.79470
C          5.03260       -2.36790        2.71910
H          3.64620       -2.92550        1.28230
H          2.71770       -1.86800        4.00900
H          0.76400       -3.21130        3.43380
H          1.47610       -3.48830        1.71330
N          1.90580       -1.86460       -1.03640
F          2.28200        1.52990        3.37660
F          1.92000        2.20340        1.24290
H          0.47440        1.54950        2.48920
C          6.19710       -3.02900        1.92730
H          4.85350       -3.21210        3.44090
H          5.39480       -1.54110        3.36030
H          5.93200       -4.06280        1.59180
H          7.07730       -3.18840        2.60480
H          6.53270       -2.43440        1.06360
