24
TSA8_9_CN_CHF2_Et
C          2.96350       -1.08620        1.07420
C          1.62100       -0.45340        1.59490
C          2.50320       -1.61180       -0.22350
H          3.72760       -0.31010        0.84880
C          1.55420        0.95570        2.18720
C          3.50820       -2.27870        1.99350
C          2.56000       -2.43870        3.16940
C          1.14670       -2.54970        2.63510
O          0.63540       -1.32340        2.14600
C          4.95200       -2.35230        2.60900
H          3.41050       -3.22790        1.42240
H          2.64780       -1.59530        3.89220
H          0.51340       -2.90030        3.47090
H          1.10540       -3.31580        1.82810
N          2.11120       -2.05250       -1.22450
F          2.25840        1.04270        3.36950
F          2.03430        1.87830        1.27640
H          0.48450        1.20670        2.38150
C          6.06820       -2.94740        1.73690
H          4.90080       -3.12280        3.41750
H          5.26420       -1.40860        3.10300
H          5.76240       -3.94230        1.34000
H          6.95890       -3.14280        2.38450
H          6.37670       -2.28460        0.91000
