17
TSA8_9_CBr3_I_F
C          1.58900       -1.04200       -1.12410
C          0.68150       -1.24390        0.07360
C          1.54520        0.44090       -1.62440
H          2.62290       -1.20980       -0.75110
I          1.49850       -1.83780        1.92940
C          1.38550       -2.14120       -2.22030
C          0.05610       -2.16720       -2.93750
C         -1.07730       -2.58850       -2.36850
O         -0.51670       -1.02210        0.01180
F          2.37690       -2.01770       -3.17640
H          1.53900       -3.14210       -1.76010
H          0.02550       -1.87570       -3.98400
H         -1.10180       -2.94260       -1.34500
H         -1.99730       -2.60590       -2.94360
Br         1.95860        1.65250       -0.15850
Br         2.88740        0.80720       -2.98190
Br        -0.17820        0.98880       -2.34440
