17
TSA8_9_CBr3_I_F
C          1.81430       -0.02550        0.00090
C          1.12490       -1.12950       -0.34430
C          2.16660        1.16610       -0.87000
H          2.16310        0.03400        1.02800
I          0.81570       -2.59540        1.17190
C         -0.10460       -3.15140       -4.35520
C         -0.45710       -2.23120       -3.45180
C         -0.12380       -2.37870       -1.99590
O          0.64350       -1.30580       -1.59950
F         -0.42650       -2.97750       -5.66340
H          0.43890       -4.04470       -4.06180
H         -1.00110       -1.34920       -3.77670
H          0.43040       -3.32550       -1.81190
H         -1.07160       -2.39480       -1.41560
Br         1.41400        2.74880       -0.04890
Br         4.09260        1.35270       -0.88460
Br         1.57380        1.14390       -2.72510
