25
TSA8_9_NO2_Et_CBr3
C          2.99000       -1.28660       -1.18780
C          1.53990       -1.41530       -0.72420
N          3.38000        0.11780       -1.26490
H          3.60880       -1.75220       -0.39390
C          0.95980       -2.65910       -0.07110
C          3.22840       -2.05600       -2.53640
C          2.41390       -1.46080       -3.67380
C          1.42520       -2.13490       -4.27050
O          0.79190       -0.45550       -0.84070
C          4.72570       -2.18670       -2.94620
H          2.88310       -3.09420       -2.38160
H          2.63510       -0.46200       -4.03230
H          1.15900       -3.13980       -3.95910
H          0.87160       -1.67510       -5.08290
O          4.23840        0.53400       -0.54530
O          2.75970        0.95610       -2.06810
C          1.94280       -3.78820        0.25450
H          0.14240       -3.05440       -0.71120
H          0.51770       -2.34370        0.89920
H          2.39510       -4.22980       -0.65020
H          1.39720       -4.60280        0.77560
H          2.74190       -3.42620        0.93500
Br         4.88700       -3.31590       -4.52220
Br         5.58940       -0.49600       -3.37270
Br         5.76350       -3.06200       -1.55430
