25
TSA8_9_NO2_Et_CBr3
C          1.48220       -0.04860        0.06640
C          1.43380       -1.14800       -0.72200
N          1.67830        1.27580       -0.42960
H          1.36950       -0.16570        1.14170
C          1.19200       -2.50620       -0.06330
C          3.73630       -3.14270       -3.98410
C          3.24700       -2.25990       -3.10260
C          1.77820       -1.95210       -3.03280
O          1.55450       -0.98900       -2.07150
C          5.20870       -3.45380       -4.05010
H          3.05500       -3.64620       -4.66480
H          3.92130       -1.75320       -2.41650
H          1.16320       -2.85730       -2.84180
H          1.47350       -1.53670       -4.01660
O          1.71080        2.18680        0.34030
O          1.82830        1.51950       -1.71460
C          2.36380       -3.48140       -0.16520
H          0.27640       -2.96550       -0.49210
H          1.00560       -2.36980        1.02480
H          2.55360       -3.80510       -1.20140
H          2.12220       -4.39880        0.41210
H          3.28250       -3.02610        0.26110
Br         5.54740       -4.76940       -5.43130
Br         6.22400       -1.85450       -4.47120
Br         5.82750       -4.17490       -2.35770
