18
TSA8_9_I_NO2_NH2
C          2.79960        0.11980        1.09140
C          1.69350        1.15370        0.79950
I          1.84390       -1.66380        1.83800
H          3.30130       -0.18250        0.14740
N          2.11040        2.21500       -0.10420
C          3.82510        0.72770        2.06360
C          3.09780        1.23340        3.31300
C          2.01100        2.22310        2.88450
O          1.07050        1.64030        1.98790
N          4.87730       -0.22990        2.40860
H          4.30390        1.59910        1.56200
H          2.63510        0.39080        3.87050
H          2.47390        3.13550        2.45560
H          1.46910        2.55200        3.79530
O          1.87560        3.35950        0.14130
O          2.58650        1.90040       -1.28920
H          4.48640       -1.02480        2.96350
H          5.59320        0.25050        3.00120
