24
TSA8_9_CF3_OMe_CF3
C          3.20720       -1.04410        0.74870
C          2.11990       -0.53970        1.67510
C          2.78930       -0.78860       -0.72220
H          4.09980       -0.40850        0.94310
O          2.39980        0.48980        2.51520
C          3.59850       -2.51260        1.14090
C          2.48800       -3.51120        0.87660
C          1.87960       -4.17720        1.86250
O          1.00860       -1.05300        1.66640
C          4.90540       -3.02280        0.49660
H          3.81130       -2.47820        2.23510
H          2.17860       -3.70620       -0.14490
H          2.15480       -4.02230        2.90090
H          1.09340       -4.88770        1.62900
F          3.81420       -1.08770       -1.59660
F          1.66870       -1.52210       -1.06810
F          2.49040        0.55360       -0.88370
C          1.50360        1.00920        3.42410
H          1.98660        1.84310        3.97390
H          1.20380        0.22660        4.15350
H          0.60590        1.39890        2.89830
F          4.76850       -3.22630       -0.86310
F          5.93230       -2.12380        0.72380
F          5.25510       -4.23190        1.07320
