24
TSA8_9_CF3_OMe_CF3
C          1.89660       -0.02580       -0.02940
C          1.81890       -0.27000        1.30960
C          1.82760       -0.88100       -1.27620
H          2.02940        1.02320       -0.28760
O          1.90860        0.83150        2.10070
C          4.15090       -3.75810        1.96110
C          3.33550       -2.98080        1.23240
C          1.88830       -2.78530        1.60390
O          1.67340       -1.47140        1.95510
C          5.59980       -3.91400        1.60660
H          3.77030       -4.27820        2.83610
H          3.73000       -2.45700        0.36700
H          1.64380       -3.40190        2.49510
H          1.17720       -3.13040        0.83760
F          3.01280       -0.73550       -1.97170
F          1.61160       -2.21630       -1.08100
F          0.79840       -0.40420       -2.06730
C          1.94720        0.78370        3.47790
H          2.03230        1.81460        3.87680
H          2.83170        0.19870        3.81290
H          1.01960        0.31810        3.87340
F          5.72100       -4.45830        0.34150
F          6.22420       -2.67970        1.63750
F          6.21390       -4.75070        2.52030
