23
TSA8_9_CF3_H_Et
C          1.54490        1.47140        1.10290
C          0.54910        0.65000        0.31400
C          2.24540        0.53700        2.10610
H          2.33790        1.82970        0.40580
H         -0.29950        0.19510        0.81670
C          0.79530        2.71520        1.69870
C          0.31430        3.55010        0.52440
C         -0.98310        3.76680        0.28640
O          0.68740        0.49480       -0.88810
C          1.61830        3.65910        2.61700
H         -0.08890        2.37250        2.28350
H          1.04920        3.98690       -0.14670
H         -1.28360        4.36870       -0.56490
H         -1.75120        3.34860        0.92960
F          3.35500        1.15760        2.64620
F          1.37340        0.14660        3.10760
F          2.70340       -0.59480        1.45090
C          1.71830        3.21410        4.08320
H          1.07440        4.62940        2.68360
H          2.61610        3.86670        2.17390
H          0.70030        3.09770        4.51220
H          2.24910        3.99850        4.66330
H          2.25900        2.27240        4.24470
