22
TSA8_9_CF3_CBr3_NH2
C          2.33060       -0.54900        1.92370
C          1.24760        0.55990        1.64950
C          2.29090       -1.63550        0.81710
H          3.34790       -0.10280        1.87160
C          1.83700        1.96820        1.41750
C          2.13210       -1.07450        3.36890
C          0.68530       -1.55020        3.60730
C         -0.31010       -0.63910        2.87080
O          0.25430        0.63810        2.67310
N          3.11360       -2.08370        3.76530
H          2.28010       -0.18880        4.02700
H          0.49320       -2.60240        3.31130
H         -1.24280       -0.56190        3.46620
H         -0.62140       -1.07270        1.89390
F          3.32660       -2.53600        0.98610
F          1.09850       -2.33180        0.81150
F          2.45050       -1.04470       -0.42260
Br         3.07290        2.00370       -0.07920
Br         0.40710        3.20930        1.00120
Br         2.75600        2.62110        3.00100
H          2.90690       -2.99310        3.29470
H          3.03580       -2.24240        4.79620
