23
TSA8_9_CF3_Br_Et
C          1.92610        0.01990        0.16990
C          1.44750        0.41190        1.38350
C          1.94140       -1.29180       -0.58670
H          2.40160        0.80870       -0.40710
Br         1.69000        2.26310        1.81320
C          1.80990       -3.74040        2.94410
C          1.83270       -2.41980        2.71260
C          0.55410       -1.64750        2.53110
O          0.80930       -0.30550        2.35630
C          3.07110       -4.53780        3.14160
H          0.85620       -4.25840        3.00360
H          2.78230       -1.89440        2.65920
H         -0.03860       -1.75740        3.46360
H         -0.08860       -2.03030        1.71570
F          3.25680       -1.63660       -0.83480
F          1.33540       -2.35210        0.02980
F          1.30610       -1.09570       -1.79880
C          3.96150       -4.51710        1.90080
H          2.79620       -5.59230        3.35910
H          3.63200       -4.13460        4.01230
H          3.41460       -4.93610        1.02920
H          4.86600       -5.13410        2.08470
H          4.28670       -3.48230        1.66350
