20
TSA8_9_CBr3_H_Me
C          1.67770       -0.89720        2.07410
C          2.67440       -2.03190        2.17130
C          1.37830       -0.56510        0.57970
H          2.15310        0.01700        2.49750
H          2.41940       -3.02100        1.80650
C          0.41430       -1.17150        2.95690
C         -0.35870       -2.40270        2.53790
C         -1.63450       -2.33600        2.14270
O          3.77690       -1.84520        2.66140
C          0.79850       -1.31550        4.43750
H         -0.24600       -0.27960        2.89670
H          0.12880       -3.37280        2.56470
H         -2.16320       -1.38850        2.10350
H         -2.15970       -3.23990        1.85250
Br         0.14690        0.92950        0.41350
Br         3.01800       -0.01370       -0.30910
Br         0.66360       -2.05430       -0.45250
H          1.32920       -0.40450        4.78730
H          1.45560       -2.19670        4.59970
H         -0.11510       -1.44180        5.05770
