17
TSA8_9_F_H_CHF2
C          2.26230        2.57000       -0.48620
C          1.17860        1.59460       -0.11420
F          3.40630        1.86970       -0.83450
H          1.90880        3.13040       -1.37920
H          0.25840        1.56990       -0.68910
C          2.55820        3.58400        0.64410
C          3.11460        2.89420        1.87210
C          2.48950        2.93460        3.05290
O          1.32440        0.81640        0.81490
C          3.54620        4.66260        0.16770
H          1.60380        4.10240        0.89200
H          4.05130        2.34920        1.79410
H          1.55130        3.46720        3.17470
H          2.91950        2.42820        3.91050
F          3.73840        5.60220        1.16540
F          4.76920        4.10740       -0.16940
H          3.13350        5.18310       -0.72290
