17
TSA8_9_F_H_CHF2
C          2.31810        0.71910       -0.31470
C          1.22070        1.41990        0.01620
F          3.42250        0.65380        0.47240
H          2.32720        0.16900       -1.25000
H          0.38610        1.39560       -0.67500
C          2.62000        4.64780        1.00950
C          3.02160        3.45950        1.48560
C          2.03360        2.49590        2.08510
O          1.06550        2.14780        1.15940
C          3.58770        5.62390        0.41200
H          1.56900        4.92060        1.05480
H          4.07200        3.18360        1.44800
H          1.53920        2.99490        2.94430
H          2.53890        1.58940        2.47870
F          4.54210        5.97780        1.34820
F          4.20660        5.06170       -0.68960
H          3.04220        6.53640        0.09140
