17
TSA8_9_F_H_CHF2
C          2.68470        2.28210       -0.14480
C          1.42730        1.46050        0.24750
F          3.82400        1.68920        0.37630
H          2.78180        2.28450       -1.25200
H          0.63840        1.70280       -0.49670
C          2.51580        3.69910        0.41940
C          2.39050        3.63000        1.95710
C          1.83530        2.27010        2.42110
O          0.86340        1.78360        1.52180
C          3.62480        4.66810       -0.01470
H          1.55230        4.09010        0.02120
H          3.35810        3.77470        2.48620
H          1.39530        2.38410        3.43330
H          2.64910        1.51710        2.52540
F          4.86150        4.24040        0.43660
F          3.65690        4.76660       -1.39450
H          3.42130        5.67730        0.40320
