21
TSA8_9_OMe_I_CCl3
C          1.52450        0.17170       -0.00310
C          1.10500       -0.86960        0.71760
O          1.72050        0.03040       -1.33580
H          1.67690        1.13410        0.47580
I          0.74990       -0.60500        2.79740
C         -0.87380       -4.60150       -1.23340
C         -0.82400       -3.36070       -0.71860
C          0.01530       -3.03140        0.48130
O          0.91200       -2.05920        0.09550
C         -1.65700       -4.98770       -2.46840
H         -0.31180       -5.39350       -0.74490
H         -1.37630       -2.54380       -1.16850
H          0.57100       -3.92340        0.84310
H         -0.65350       -2.67570        1.29360
C          1.99560        1.09740       -2.15790
H          2.10300        0.73150       -3.19970
H          2.93830        1.59260       -1.84520
H          1.15630        1.82470       -2.12240
Cl        -0.53170       -5.71480       -3.64040
Cl        -2.87570       -6.20350       -2.02250
Cl        -2.49220       -3.62990       -3.28250
