21
TSA8_9_CCl3_OMe_I
C          1.17410       -0.68310        1.46210
C          2.41740       -0.28190        2.24630
C          1.52000       -1.19840        0.01460
H          0.59060        0.25130        1.30880
O          3.66130       -0.54620        1.76790
C          0.30490       -1.62360        2.37110
C         -1.04590       -1.98180        1.80480
C         -1.96720       -1.05360        1.52420
O          2.28390        0.27960        3.32660
I          1.30210       -3.42420        3.01850
H          0.10030       -1.08540        3.32290
H         -1.29320       -3.02540        1.63430
H         -1.77180        0.00090        1.68910
H         -2.93130       -1.35200        1.12530
Cl         2.53400       -2.66840       -0.02710
Cl         0.07020       -1.52630       -0.97190
Cl         2.40340        0.07560       -0.87860
C          4.82610       -0.24800        2.44150
H          5.69260       -0.56940        1.82790
H          4.85450       -0.78940        3.41130
H          4.89750        0.84630        2.61870
