17
TSA8_9_CN_NO2_Br
C          1.62510        0.05990       -0.04740
C          1.56410        1.40870       -0.34480
C          1.77750       -0.58230        1.25390
H          1.48230       -0.66060       -0.84390
N          1.34580        1.79260       -1.70060
C          2.72640        3.09550        3.71490
C          2.45640        2.20490        2.76200
C          1.24680        2.34040        1.89010
O          1.66970        2.41320        0.57790
Br         4.27350        2.90750        4.81760
H          2.07110        3.94220        3.88160
H          3.12980        1.36460        2.60950
H          0.64000        3.23320        2.17070
H          0.54240        1.49130        2.02170
N          1.89900       -1.08950        2.29100
O          1.69260        2.86720       -2.09090
O          0.52270        1.08020       -2.43940
