17
TSA8_9_CN_NO2_Br
C          2.57830        1.06790        0.89580
C          1.33140        1.59410        0.13500
C          2.15650       -0.25600        1.39000
H          3.45310        0.92960        0.22270
N          1.52030        1.73580       -1.28900
C          2.88980        2.07580        2.04090
C          1.65450        2.21850        2.91940
C          0.41630        2.48090        2.03990
O          0.77780        2.77150        0.70010
Br         4.44480        1.75190        3.15540
H          3.08690        3.07160        1.58290
H          1.50460        1.28460        3.51300
H         -0.10250        3.35620        2.47280
H         -0.29390        1.62180        2.07030
N          1.79170       -1.27570        1.80020
O          2.17030        2.63450       -1.73100
O          0.84830        0.95430       -2.10510
