18
TSA8_9_OH_CBr3_F
C          2.69330       -1.53360       -1.00110
C          1.43630       -2.15270       -0.41760
O          2.45400       -0.18750       -1.31840
H          3.51890       -1.58460       -0.25300
C          1.41650       -2.70330        0.99290
C          3.20370       -2.29370       -2.24840
C          2.21870       -2.35130       -3.39390
C          1.79650       -1.26330       -4.04640
O          0.41880       -2.18390       -1.09530
F          3.52300       -3.58970       -1.88110
H          4.13600       -1.80860       -2.61080
H          1.84820       -3.32140       -3.71280
H          1.09320       -1.36560       -4.86650
H          2.14570       -0.27130       -3.78430
H          2.49240        0.32200       -0.46690
Br         1.85180       -1.30220        2.26040
Br        -0.33050       -3.41170        1.47310
Br         2.70400       -4.14010        1.18140
