20
TSA8_9_H_CHF2_CH2F
C          1.98890       -1.68630        1.31100
C          0.84800       -1.45520        2.26930
H          1.62720       -1.42840        0.29140
H          2.83810       -1.00920        1.55450
C          0.97020       -0.44680        3.37650
C          2.47530       -3.15060        1.31740
C          3.53480       -3.32300        0.25390
C          3.37390       -4.16120       -0.77580
O         -0.19210       -2.08280        2.12970
C          3.05340       -3.55300        2.68270
H          1.60800       -3.81210        1.09410
H          4.45470       -2.74870        0.32460
H          2.47050       -4.75210       -0.88460
H          4.15550       -4.25900       -1.52200
F         -0.20050       -0.38470        4.11210
F          2.01200       -0.79510        4.21570
H          1.17180        0.55440        2.94120
F          3.46600       -4.87390        2.65430
H          2.28360       -3.44910        3.47610
H          3.92080       -2.90960        2.94460
