20
TSA8_9_CH2F_CCl3_Br
C          1.71430       -0.12230        0.02320
C          1.44730       -1.45710        0.03610
C          1.87200        0.74130       -1.19950
H          1.79850        0.42420        0.95350
C          1.21550       -2.21990        1.33280
C          4.04150       -3.99500       -2.14560
C          2.75420       -3.66170       -2.28690
C          2.27760       -2.24720       -2.12860
O          1.35600       -2.20710       -1.09920
Br         4.59650       -5.81290       -2.34350
H          4.79150       -3.24540       -1.91190
H          2.02450       -4.43280       -2.51610
H          1.79030       -1.93060       -3.07420
H          3.14100       -1.57600       -1.92130
F          3.14180        1.28690       -1.21710
H          1.12840        1.56300       -1.14580
H          1.68710        0.21660       -2.15170
Cl         2.41870       -3.52890        1.45030
Cl         1.32430       -1.25550        2.83810
Cl        -0.40720       -2.95340        1.28570
