20
TSA8_9_CH2F_CCl3_Br
C          2.68490       -1.13010       -0.46940
C          1.22400       -1.63620       -0.31490
C          2.63540        0.27710       -1.09980
H          3.16280       -0.94970        0.51670
C          0.86670       -2.54470        0.88590
C          3.55510       -2.10740       -1.30620
C          2.71790       -3.03360       -2.19590
C          1.41490       -2.35950       -2.61670
O          0.56220       -2.02150       -1.52450
Br         4.71880       -3.18880       -0.18240
H          4.25160       -1.52070       -1.94120
H          2.43290       -3.95640       -1.65730
H          0.86990       -3.08020       -3.26130
H          1.61620       -1.47080       -3.24550
F          3.90910        0.81470       -1.17490
H          2.02200        0.94590       -0.45820
H          2.19030        0.28350       -2.11070
Cl         1.56900       -4.17710        0.81190
Cl         1.37950       -1.78240        2.41400
Cl        -0.90460       -2.72510        0.96630
