20
TSA8_9_CH2F_H_Me
C          1.53200       -1.31070        1.96650
C          1.46890        0.13880        1.54310
C          1.27640       -2.22220        0.75060
H          2.57200       -1.50180        2.31280
H          2.35410        0.76060        1.63010
C          0.58420       -1.57810        3.17600
C         -0.87450       -1.34600        2.83820
C         -1.60170       -0.40840        3.45440
O          0.44260        0.62230        1.09090
C          0.74730       -2.99730        3.73680
H          0.89520       -0.88040        3.98760
H         -1.35040       -1.95840        2.07860
H         -1.16890        0.22590        4.22190
H         -2.64460       -0.27030        3.18960
F          2.19360       -1.94470       -0.24860
H          0.25530       -2.07060        0.34320
H          1.39500       -3.28890        1.02650
H          0.42570       -3.76670        3.00450
H          0.12380       -3.11590        4.64910
H          1.80650       -3.18160        4.01560
