20
TSA8_9_CH2F_H_Me
C          1.43840       -1.46530        2.25530
C          1.24570        0.02320        1.91460
C          1.31820       -2.30970        0.97120
H          2.46660       -1.61530        2.65200
H          1.51270        0.69170        2.76490
C          0.41310       -1.82770        3.36260
C         -1.00180       -1.43150        2.92020
C         -0.99770        0.04610        2.50420
O         -0.07170        0.27980        1.45540
C          0.46620       -3.29690        3.79460
H          0.66280       -1.21680        4.25990
H         -1.34020       -2.05820        2.06770
H         -0.78280        0.70470        3.37630
H         -2.01390        0.31350        2.14790
F          2.27800       -1.91080        0.05750
H          0.32050       -2.20070        0.49910
H          1.49020       -3.38240        1.19300
H          0.17970       -3.97520        2.96460
H         -0.24070       -3.46620        4.63470
H          1.48960       -3.55460        4.14060
