22
TSA8_9_CHF2_NH2_CHF2
C          1.73940       -0.05220       -0.07200
C          1.49360       -1.19360       -0.76220
C          1.85350        1.35450       -0.60620
H          1.84500       -0.13100        1.00700
N          1.34280       -2.40660       -0.04140
C          2.68500       -2.20610       -5.10000
C          2.80230       -2.10140       -3.76840
C          2.35430       -0.88200       -3.01720
O          1.37570       -1.25770       -2.11580
C          3.13650       -3.44080       -5.82120
H          2.25620       -1.39230       -5.67830
H          3.23220       -2.92150       -3.19900
H          1.94160       -0.11970       -3.71230
H          3.24120       -0.45580       -2.49790
F          3.12630        1.83690       -0.36830
F          1.55650        1.47370       -1.94610
H          1.12440        1.98680       -0.05790
H          1.15600       -3.28420       -0.54780
H          1.41790       -2.43550        0.98620
F          4.48930       -3.64140       -5.61400
F          2.43230       -4.53920       -5.36180
H          2.95210       -3.32490       -6.90940
