23
TSA8_9_CBr3_CCl3_CH2F
C          2.46040       -1.84700       -0.48420
C          1.33120       -1.61170        0.60470
C          2.45580       -0.75430       -1.62340
H          3.43960       -1.69820        0.01970
C          1.87960       -1.36810        2.03730
C          2.39980       -3.35180       -0.90610
C          0.99050       -3.76790       -1.36330
C         -0.09250       -3.02050       -0.57530
O          0.39270       -2.68510        0.69930
C          3.47610       -3.87130       -1.86680
H          2.57190       -3.90520        0.04410
H          0.79010       -3.66140       -2.44970
H         -0.98760       -3.66910       -0.48670
H         -0.44660       -2.10500       -1.09190
Br         2.28800        1.04030       -0.90030
Br         4.15670       -0.70920       -2.56620
Br         1.06290       -0.88730       -2.96990
Cl         2.71560       -2.81680        2.66350
Cl         3.01130        0.00610        2.14100
Cl         0.51910       -1.00360        3.12980
F          3.27920       -3.40300       -3.15260
H          3.42140       -4.98050       -1.90680
H          4.48690       -3.59070       -1.50340
