20
TSA8_9_F_NO2_OMe
C          3.26590        1.76080       -0.51460
C          1.79450        1.63570       -0.86760
F          3.70860        0.52910       -0.06010
H          3.84830        2.02590       -1.42090
N          1.34180        1.85930       -2.13400
C          3.51850        2.87640        0.53940
C          2.89200        2.56720        1.88650
C          1.92560        3.32700        2.41210
O          1.00290        1.31610        0.00970
O          4.88930        3.23750        0.68630
H          3.03390        3.78690        0.12050
H          3.22940        1.70280        2.44910
H          1.54940        4.20190        1.89140
H          1.50190        3.07190        3.37830
O          0.17820        1.74920       -2.38280
O          2.17030        2.19780       -3.09940
C          5.74940        2.14530        0.93860
H          6.71880        2.54770        1.29690
H          5.96110        1.58680        0.00250
H          5.37660        1.47860        1.74320
