20
TSA8_9_F_NO2_OMe
C          1.80570        0.14270       -0.12490
C          1.43360        1.30940       -0.70440
F          2.16130        0.04020        1.18070
H          1.81710       -0.77630       -0.70160
N          1.05020        1.32050       -2.07960
C          4.16690        3.88360        1.40010
C          3.42380        2.78520        1.16400
C          1.91660        2.82320        1.20840
O          1.39250        2.49960       -0.02980
O          5.52790        3.89350        1.35390
H          3.67020        4.81940        1.63690
H          3.90400        1.84300        0.92640
H          1.56990        3.84740        1.46500
H          1.51920        2.15010        1.99510
O          0.72390        2.34750       -2.59430
O          1.06130        0.21820       -2.79990
C          6.33560        2.81830        1.04210
H          7.39670        3.13920        1.08050
H          6.11230        2.45680        0.01560
H          6.18570        1.99860        1.77670
