24
TSA8_9_CF3_CBr3_OMe
C          1.65320       -0.05860       -0.08850
C          1.42730       -0.37680       -1.39620
C          1.78240        1.31040        0.54030
H          1.72930       -0.85200        0.64170
C          1.21330       -1.81880       -1.84180
C          4.23620        0.96410       -4.17960
C          2.93280        1.22340       -4.02330
C          2.34270        1.49960       -2.67080
O          1.38010        0.54350       -2.40080
O          4.72990        0.70300       -5.41220
H          4.89520        0.95570       -3.31400
H          2.27760        1.22450       -4.89000
H          1.87480        2.50570       -2.69000
H          3.14570        1.48500       -1.89980
F          3.06960        1.47250        1.01600
F          1.46940        2.35050       -0.30610
F          0.90690        1.37770        1.60770
Br         1.25550       -3.19190       -0.45690
Br        -0.51670       -1.94690       -2.70690
Br         2.57260       -2.28800       -3.14080
C          6.05420        0.39650       -5.64630
H          6.11880       -0.60870       -6.11110
H          6.65740        0.39410       -4.71170
H          6.48460        1.14430       -6.34450
