24
TSA8_9_CF3_CBr3_OMe
C          2.96440        0.09050       -1.47860
C          1.46990       -0.16680       -1.81880
C          3.06640        0.97620       -0.20960
H          3.45430       -0.84970       -1.14510
C          1.06320       -1.56120       -2.35780
C          3.75390        0.65220       -2.69720
C          2.82800        1.28800       -3.75110
C          1.56570        1.86830       -3.12780
O          0.76430        0.91310       -2.43720
O          4.47130       -0.40750       -3.31020
H          4.45150        1.42580       -2.29620
H          2.49360        0.53600       -4.48890
H          0.95750        2.28270       -3.95850
H          1.80820        2.72640       -2.47560
F          4.39400        1.11610        0.15770
F          2.52830        2.23340       -0.38150
F          2.39760        0.35930        0.83390
Br         1.60230       -2.94610       -1.11010
Br        -0.86990       -1.65990       -2.47950
Br         1.78190       -2.02430       -4.09610
C          5.63290        0.07870       -3.94820
H          6.06950       -0.74300       -4.55180
H          6.39380        0.38790       -3.19870
H          5.40100        0.90630       -4.65530
