21
TSA8_9_CCl3_OH_CHF2
C          1.50270       -0.41360        2.29480
C          2.69290       -1.31180        2.62760
C          1.37530       -0.14520        0.75920
H          1.74180        0.58400        2.73070
O          2.78560       -2.59760        2.22250
C          0.16620       -0.84690        2.99910
C         -0.39120       -2.17260        2.52530
C         -1.57530       -2.26150        1.91000
O          3.61250       -0.84590        3.28270
C          0.30090       -0.89000        4.53530
H         -0.58110       -0.05150        2.78650
H          0.16550       -3.08550        2.70070
H         -2.17850       -1.37940        1.71740
H         -1.94960       -3.22870        1.59150
Cl         0.98680       -1.58460       -0.22500
Cl         0.11670        1.07930        0.43100
Cl         2.90790        0.52570        0.13100
H          2.12230       -3.03960        1.68260
F          1.18530       -1.87430        4.94090
F          0.72890        0.33410        5.01930
H         -0.69080       -1.10950        4.98680
