21
TSA8_9_NO2_Me_NH2
C          2.73190       -0.83200       -1.50300
C          1.65810       -1.34090       -0.56400
N          2.89440        0.60570       -1.34530
H          3.68890       -1.32970       -1.21890
C          2.00480       -2.32820        0.50990
C          2.45680       -1.24350       -2.97640
C          1.18310       -0.65120       -3.55100
C          0.16250       -1.41610       -3.95020
O          0.50510       -0.94900       -0.67080
N          3.59730       -0.87420       -3.81730
H          2.38240       -2.35540       -2.98420
H          1.09170        0.42420       -3.65690
H          0.20370       -2.49780       -3.87120
H         -0.72960       -0.95520       -4.36210
O          3.93890        1.04750       -0.97080
O          1.88840        1.42790       -1.55490
H          2.41580       -3.25080        0.04910
H          1.10590       -2.59530        1.10580
H          2.76580       -1.88810        1.18790
H          3.68580        0.16680       -3.87320
H          3.45180       -1.24640       -4.78430
