21
TSA8_9_NO2_Me_NH2
C          2.15940       -0.08820       -0.28290
C          1.65200       -1.32770       -0.58080
N          1.96810        1.17220       -0.93040
H          2.80640       -0.04000        0.59110
C          2.02260       -2.46450        0.33830
C          2.48630       -1.88290       -4.04100
C          1.64710       -0.89560       -3.69700
C          0.45660       -1.16600       -2.81750
O          0.84670       -1.72180       -1.61650
N          3.60580       -1.63510       -4.87230
H          2.31190       -2.89360       -3.68110
H          1.81980        0.11280       -4.06110
H         -0.18750       -1.90590       -3.33740
H         -0.19450       -0.28910       -2.66530
O          2.54660        2.12340       -0.50020
O          1.10620        1.35780       -1.89630
H          2.55510       -3.24400       -0.24650
H          1.09860       -2.90640        0.76580
H          2.68030       -2.16060        1.18060
H          3.80450       -0.69020       -5.23280
H          4.23570       -2.41010       -5.12440
