18
TSA8_9_CBr3_OH_Cl
C          0.87380       -0.05020        1.01970
C          0.04610       -1.09740        0.27990
C          2.38930       -0.11980        0.60500
H          0.52040        0.93810        0.64550
O          0.18170       -2.42480        0.49650
C          0.49120       -0.05950        2.53880
C          0.91500       -1.28680        3.30590
C          0.02400       -2.12530        3.84650
O         -0.78270       -0.72530       -0.53630
Cl         1.07030        1.37730        3.42480
H         -0.61880        0.02680        2.57670
H          1.96860       -1.49480        3.44440
H         -1.04330       -1.95690        3.74370
H          0.36390       -2.99470        4.39930
Br         3.44350        1.36040        1.28860
Br         3.33500       -1.75260        1.07480
Br         2.52840        0.03870       -1.33010
H          0.79670       -2.79990        1.13610
