24
TSA8_9_Et_F_OMe
C          2.41830       -1.26680        0.75100
C          1.03810       -1.15300        1.47450
C          2.24170       -0.89120       -0.74600
H          3.10670       -0.50740        1.18580
F          1.18490       -0.40430        2.62930
C          2.98020       -2.68100        1.02470
C          1.98720       -3.74400        0.51020
C          0.53260       -3.30520        0.75060
O          0.46160       -2.40750        1.83690
O          4.27760       -2.84040        0.48320
H          3.03470       -2.75170        2.13790
H          2.10920       -3.98230       -0.56860
H         -0.08830       -4.20170        0.95170
H          0.08880       -2.83330       -0.15390
C          3.55030       -0.79680       -1.53210
H          1.77220        0.11670       -0.78530
H          1.56670       -1.59470       -1.27150
H          4.24380       -0.07940       -1.04450
H          3.33360       -0.43580       -2.55910
H          4.04010       -1.78470       -1.63220
C          4.87770       -4.05270        0.90300
H          5.90480       -3.83550        1.26130
H          4.93440       -4.74690        0.03960
H          4.34980       -4.57040        1.73790
