25
TSA8_9_CH2F_NO2_Et
C          2.93100        1.36590       -0.45780
C          1.62890        1.09280       -1.20980
C          2.80300        0.67330        0.92130
H          3.76550        0.88760       -1.01120
N          1.60760        0.37370       -2.36900
C          3.19980        2.91280       -0.45800
C          2.30630        3.65600        0.51550
C          1.38450        4.53430        0.10920
O          0.57930        1.53200       -0.75610
C          4.67740        3.37660       -0.31790
H          2.95940        3.24330       -1.49650
H          2.41710        3.47630        1.58040
H          1.23700        4.74970       -0.94430
H          0.76710        5.04670        0.83990
F          3.95180        0.72380        1.67100
H          2.57200       -0.40270        0.76330
H          1.97010        1.10790        1.51300
O          0.57340        0.17760       -2.93350
O          2.71720       -0.11180       -2.88480
C          5.38400        3.18780        1.02250
H          4.68490        4.47120       -0.52040
H          5.29090        2.89460       -1.11030
H          4.80600        3.64600        1.85120
H          6.37330        3.69040        0.97480
H          5.60170        2.12850        1.22240
