25
TSA8_9_CH2F_NO2_Et
C          1.73040        0.04210       -0.13810
C          1.42330        0.83370       -1.21180
C          1.93370        0.38100        1.31550
H          1.83870       -1.02290       -0.31530
N          1.25390        0.20780       -2.48960
C          3.80100        4.30800       -0.47330
C          3.08160        3.23240       -0.11600
C          1.58450        3.18170       -0.29290
O          1.25240        2.19400       -1.19670
C          5.29990        4.34230       -0.33710
H          3.30500        5.17770       -0.89530
H          3.59090        2.36480        0.28830
H          1.22420        4.14490       -0.71150
H          1.03310        3.06650        0.65690
F          3.20090       -0.01430        1.69790
H          1.19200       -0.19280        1.91010
H          1.81130        1.42740        1.59780
O          0.98620        0.87520       -3.44230
O          1.40140       -1.09150       -2.64270
C          5.74880        4.22470        1.11770
H          5.67370        5.30620       -0.74410
H          5.74240        3.51510       -0.93310
H          5.32970        5.06150        1.71620
H          6.85700        4.27190        1.16540
H          5.42050        3.26000        1.55730
